
Actelion Java MolfileCreator 1.0

 33 36  0  0  0  0  0  0  0  0999 V2000
    0.0000   -0.0000   -0.0000 S   0  0  0  0  0  0  0  0  0  0  0  0
   -1.5123    0.0123   -0.0000 C   0  0  0  0  0  0  0  0  0  0  0  0
    0.7131   -1.3278   -0.0000 C   0  0  0  0  0  0  0  0  0  0  0  0
   -2.4221   -1.2049   -0.0000 C   0  0  0  0  0  0  0  0  0  0  0  0
   -2.4221    1.1926   -0.0000 C   0  0  0  0  0  0  0  0  0  0  0  0
    0.2336   -2.7417   -0.0000 C   0  0  0  0  0  0  0  0  0  0  0  0
    2.1885   -1.3155   -0.0000 C   0  0  0  0  0  0  0  0  0  0  0  0
   -3.8237   -0.7500   -0.0000 N   0  0  0  0  0  0  0  0  0  0  0  0
   -2.1024   -2.6434   -0.0000 C   0  0  0  0  0  0  0  0  0  0  0  0
   -3.8237    0.7623   -0.0000 C   0  0  0  0  0  0  0  0  0  0  0  0
   -1.9918    2.6557   -0.0000 C   0  0  0  0  0  0  0  0  0  0  0  0
    1.4508   -3.5901   -0.0000 N   0  0  0  0  0  0  0  0  0  0  0  0
    2.6065   -2.6926   -0.0000 C   0  0  0  0  0  0  0  0  0  0  0  0
   -5.3974   -0.7377   -0.0000 C   0  0  0  0  0  0  0  0  0  0  0  0
   -0.7254   -3.1352   -0.0000 O   0  0  0  0  0  0  0  0  0  0  0  0
   -3.2335   -3.6884   -0.0000 O   0  0  0  0  0  0  0  0  0  0  0  0
   -5.3974    0.7746   -0.0000 C   0  0  0  0  0  0  0  0  0  0  0  0
    3.8729   -3.4671   -0.0000 C   0  0  0  0  0  0  0  0  0  0  0  0
   -6.4179   -1.7827   -0.0000 O   0  0  0  0  0  0  0  0  0  0  0  0
   -6.6884    1.5123   -0.0000 C   0  0  0  0  0  0  0  0  0  0  0  0
    3.8606   -4.9056   -0.0000 O   0  0  0  0  0  0  0  0  0  0  0  0
    5.2007   -2.6803   -0.0000 N   0  0  0  0  0  0  0  0  0  0  0  0
   -6.7007    3.0245   -0.0000 O   0  0  0  0  0  0  0  0  0  0  0  0
   -7.9793    0.7992   -0.0000 C   0  0  0  0  0  0  0  0  0  0  0  0
    5.1884   -1.1680   -0.0000 C   0  0  0  0  0  0  0  0  0  0  0  0
    6.4548   -0.4303   -0.0000 C   0  0  0  0  0  0  0  0  0  0  0  0
    3.8360   -0.4303   -0.0000 C   0  0  0  0  0  0  0  0  0  0  0  0
    6.4425    1.0819   -0.0000 C   0  0  0  0  0  0  0  0  0  0  0  0
    3.8237    1.0819   -0.0000 C   0  0  0  0  0  0  0  0  0  0  0  0
    7.7088    1.8688   -0.0000 C   0  0  0  0  0  0  0  0  0  0  0  0
    5.1515    1.8811   -0.0000 C   0  0  0  0  0  0  0  0  0  0  0  0
    7.6965    3.3319   -0.0000 O   0  0  0  0  0  0  0  0  0  0  0  0
    9.0367    1.0942   -0.0000 O   0  0  0  0  0  0  0  0  0  0  0  0
  1  2  1  0  0  0  0
  3  1  1  1  0  0  0
  2  4  2  0  0  0  0
  2  5  1  0  0  0  0
  3  6  1  0  0  0  0
  3  7  1  0  0  0  0
  4  8  1  0  0  0  0
  4  9  1  0  0  0  0
  5 10  1  0  0  0  0
  5 11  1  1  0  0  0
  6 12  1  0  0  0  0
  7 13  1  0  0  0  0
  8 14  1  0  0  0  0
  9 15  2  0  0  0  0
  9 16  1  0  0  0  0
 10 17  1  0  0  0  0
 13 18  1  1  0  0  0
 14 19  2  0  0  0  0
 17 20  1  0  0  0  0
 18 21  2  0  0  0  0
 18 22  1  0  0  0  0
 20 23  1  1  0  0  0
 20 24  1  0  0  0  0
 22 25  1  0  0  0  0
 25 26  2  0  0  0  0
 25 27  1  0  0  0  0
 26 28  1  0  0  0  0
 27 29  2  0  0  0  0
 28 30  1  0  0  0  0
 28 31  2  0  0  0  0
 30 32  2  0  0  0  0
 30 33  1  0  0  0  0
 10  8  1  1  0  0  0
 12 13  1  0  0  0  0
 17 14  1  6  0  0  0
 29 31  1  0  0  0  0
M  END
>  <GENERIC_NAME>
Ertapenem

>  <SYNONYMS>


>  <cLogP>
-2.1769

>  <cLogS>
-3.174

>  <H-Acceptors>
10

>  <H-Donors>
5

>  <Polar Surface Area>
181.57

>  <Druglikeness>
7.1743

>  <Mutagenic>
none

>  <Tumorigenic>
none

>  <Reproductive Effective>
none

>  <Irritant>
none

>  <Nasty Functions>


>  <Symmetric atoms>
0

>  <Molecular Formula>
C22H25N3O7S

>  <Total Molweight>
475.521

$$$$

Actelion Java MolfileCreator 1.0

  4  3  0  0  0  0  0  0  0  0999 V2000
    0.0000   -0.0000   -0.0000 N   0  0  0  0  0  0  0  0  0  0  0  0
   -0.0117    1.5018   -0.0000 C   0  0  0  0  0  0  0  0  0  0  0  0
    1.2671    2.2644   -0.0000 N   0  0  0  0  0  0  0  0  0  0  0  0
   -1.3141    2.2644   -0.0000 N   0  0  0  0  0  0  0  0  0  0  0  0
  1  2  2  0  0  0  0
  2  3  1  0  0  0  0
  2  4  1  0  0  0  0
M  END
>  <GENERIC_NAME>
Guanidine

>  <SYNONYMS>
Aminomethanamidine; Carbamamidine; Carbamidine; Guanidin; Guanidine Hydrochloride; Guanidinium Chloride; Guanidinium Sulfate; Imidourea; Iminourea

>  <cLogP>
-1.7184

>  <cLogS>
0.022

>  <H-Acceptors>
3

>  <H-Donors>
3

>  <Polar Surface Area>
75.89

>  <Druglikeness>
-3.4523

>  <Mutagenic>
none

>  <Tumorigenic>
none

>  <Reproductive Effective>
none

>  <Irritant>
low

>  <Nasty Functions>


>  <Symmetric atoms>
1

>  <Molecular Formula>
CH5N3

>  <Total Molweight>
59.0717

$$$$

Actelion Java MolfileCreator 1.0

  4  3  0  0  0  0  0  0  0  0999 V2000
    0.0000   -0.0000   -0.0000 S   0  0  0  0  0  0  0  0  0  0  0  0
    1.2890    0.7568   -0.0000 O   0  0  0  0  0  0  0  0  0  0  0  0
   -1.3126    0.7568   -0.0000 C   0  0  0  0  0  0  0  0  0  0  0  0
   -0.0118   -1.4900   -0.0000 C   0  0  0  0  0  0  0  0  0  0  0  0
  1  2  2  0  0  0  0
  1  3  1  0  0  0  0
  1  4  1  0  0  0  0
M  END
>  <GENERIC_NAME>
Dimethyl sulfoxide

>  <SYNONYMS>
Diemthyl sulfoxide; Dimethyl sulfoxide BP; Dimethyl sulfur oxide; Dimethyl sulphoxide; Dimethyl sulpoxide; Dimexidum; Methyl sulfoxide; Methylsulfinylmethane; Sulfinylbis-methane; Sulfinylbismethane; Sulfinyldimethane

>  <cLogP>
-1.2837

>  <cLogS>
-0.044

>  <H-Acceptors>
1

>  <H-Donors>
0

>  <Polar Surface Area>
36.28

>  <Druglikeness>
-1.4555

>  <Mutagenic>
high

>  <Tumorigenic>
high

>  <Reproductive Effective>
high

>  <Irritant>
high

>  <Nasty Functions>


>  <Symmetric atoms>
1

>  <Molecular Formula>
C2H6OS

>  <Total Molweight>
78.1346

$$$$

Actelion Java MolfileCreator 1.0

 11 10  0  0  0  0  0  0  0  0999 V2000
    0.0000   -0.0000   -0.0000 F   0  0  0  0  0  0  0  0  0  0  0  0
   -1.5070    0.0118   -0.0000 C   0  0  0  0  0  0  0  0  0  0  0  0
   -1.5188   -1.4717   -0.0000 F   0  0  0  0  0  0  0  0  0  0  0  0
   -1.5188    1.5188   -0.0000 F   0  0  0  0  0  0  0  0  0  0  0  0
   -3.0140    0.0235   -0.0000 C   0  0  0  0  0  0  0  0  0  0  0  0
   -3.0258   -1.4599   -0.0000 F   0  0  0  0  0  0  0  0  0  0  0  0
   -3.0258    1.5306   -0.0000 F   0  0  0  0  0  0  0  0  0  0  0  0
   -4.5211    0.0353   -0.0000 C   0  0  0  0  0  0  0  0  0  0  0  0
   -4.5328    1.5423   -0.0000 F   0  0  0  0  0  0  0  0  0  0  0  0
   -4.5328   -1.4481   -0.0000 F   0  0  0  0  0  0  0  0  0  0  0  0
   -6.0281    0.0471   -0.0000 F   0  0  0  0  0  0  0  0  0  0  0  0
  1  2  1  0  0  0  0
  2  3  1  0  0  0  0
  2  4  1  0  0  0  0
  2  5  1  0  0  0  0
  5  6  1  0  0  0  0
  5  7  1  0  0  0  0
  5  8  1  0  0  0  0
  8  9  1  0  0  0  0
  8 10  1  0  0  0  0
  8 11  1  0  0  0  0
M  END
>  <GENERIC_NAME>
Perflutren

>  <SYNONYMS>
Octafluoropropane; Octafluorpropan; Perfluoropropane

>  <cLogP>
2.6548

>  <cLogS>
-3.182

>  <H-Acceptors>
0

>  <H-Donors>
0

>  <Polar Surface Area>
0

>  <Druglikeness>
-61.866

>  <Mutagenic>
none

>  <Tumorigenic>
none

>  <Reproductive Effective>
none

>  <Irritant>
high

>  <Nasty Functions>


>  <Symmetric atoms>
7

>  <Molecular Formula>
C3F8

>  <Total Molweight>
188.017

$$$$

Actelion Java MolfileCreator 1.0

  2  0  0  0  0  0  0  0  0  0999 V2000
    0.0000   -0.0000   -0.0000 I   0  0  0  0  0  0  0  0  0  0  0  0
   -4.0000    0.0312   -0.0000 K   0  0  0  0  0  0  0  0  0  0  0  0
M  CHG  2   1  -1   2   1
M  END
>  <GENERIC_NAME>
Potassium Iodide

>  <SYNONYMS>


>  <cLogP>
0

>  <cLogS>
-0.53

>  <H-Acceptors>
0

>  <H-Donors>
0

>  <Polar Surface Area>
0

>  <Druglikeness>
-1

>  <Mutagenic>
none

>  <Tumorigenic>
none

>  <Reproductive Effective>
none

>  <Irritant>
none

>  <Nasty Functions>


>  <Symmetric atoms>
0

>  <Molecular Formula>
I.K

>  <Total Molweight>
165.998

$$$$

Actelion Java MolfileCreator 1.0

  3  2  0  0  0  0  0  0  0  0999 V2000
    0.0000   -0.0000   -0.0000 O   0  0  0  0  0  0  0  0  0  0  0  0
    1.2979    0.7622   -0.0000 C   0  0  0  0  0  0  0  0  0  0  0  0
    2.5958    0.0206   -0.0000 C   0  0  0  0  0  0  0  0  0  0  0  0
  1  2  1  0  0  0  0
  2  3  1  0  0  0  0
M  END
>  <GENERIC_NAME>
Ethanol

>  <SYNONYMS>
Absolute Alcohol; Absolute Ethanol; Alcohol; Alcohol Anhydrous; Alcohol, Dehydrated; Alcohol, Diluted; Alcool Ethylique; Alcool Etilico; Alkohol; Alkoholu Etylowego; Aminoethanol; Beta-Aminoethanol; Beta-Aminoethyl Alcohol; Beta-Ethanolamine; Beta-Hydroxy<NL>thylamine; Caswell No. 426; Dehydrated Ethanol; Denatured Alcohol; Denatured Ethanol; Etanolo; Ethanol 200 Proof; Ethanol Anhydrous; Ethanol Extra Pure; Ethyl Alcohol; Ethyl Alcohol Anhydrous; Ethyl Alcohol, Anhydrous; Ethyl Alcohol, Denatured; Ethyl Hydr<NL>te; Ethyl Hydroxide; Ethylol; Ethylolamine; HSDB 531; Methylcarbinol; USAF EK-1597

>  <cLogP>
0.0505

>  <cLogS>
-0.477

>  <H-Acceptors>
1

>  <H-Donors>
1

>  <Polar Surface Area>
20.23

>  <Druglikeness>
-2.315

>  <Mutagenic>
high

>  <Tumorigenic>
high

>  <Reproductive Effective>
high

>  <Irritant>
high

>  <Nasty Functions>


>  <Symmetric atoms>
0

>  <Molecular Formula>
C2H6O

>  <Total Molweight>
46.0686

$$$$

Actelion Java MolfileCreator 1.0

 28 30  0  0  0  0  0  0  0  0999 V2000
    0.0000   -0.0000   -0.0000 N   0  0  0  0  0  0  0  0  0  0  0  0
   -1.3097   -0.7315   -0.0000 C   0  0  0  0  0  0  0  0  0  0  0  0
   -2.6194   -1.4749   -0.0000 C   0  0  0  0  0  0  0  0  0  0  0  0
   -2.6312   -2.9616   -0.0000 C   0  0  0  0  0  0  0  0  0  0  0  0
   -3.9291   -0.7079   -0.0000 C   0  0  0  0  0  0  0  0  0  0  0  0
   -3.9409   -3.6931   -0.0000 C   0  0  0  0  0  0  0  0  0  0  0  0
   -5.2388   -1.4513   -0.0000 C   0  0  0  0  0  0  0  0  0  0  0  0
   -5.2506   -2.9380   -0.0000 C   0  0  0  0  0  0  0  0  0  0  0  0
   -6.5603   -3.6695   -0.0000 N   0  0  0  0  0  0  0  0  0  0  0  0
   -7.8700   -2.9144   -0.0000 C   0  0  0  0  0  0  0  0  0  0  0  0
   -7.8818   -1.4041   -0.0000 N   0  0  0  0  0  0  0  0  0  0  0  0
   -9.1796   -3.6459   -0.0000 N   0  0  0  0  0  0  0  0  0  0  0  0
   -9.1914   -0.6371   -0.0000 C   0  0  0  0  0  0  0  0  0  0  0  0
  -10.4893   -2.8908   -0.0000 C   0  0  0  0  0  0  0  0  0  0  0  0
   -9.2032    0.8731   -0.0000 N   0  0  0  0  0  0  0  0  0  0  0  0
  -10.5011   -1.3805   -0.0000 C   0  0  0  0  0  0  0  0  0  0  0  0
   -7.9172    1.6283   -0.0000 C   0  0  0  0  0  0  0  0  0  0  0  0
   -6.6311    0.8967   -0.0000 C   0  0  0  0  0  0  0  0  0  0  0  0
   -7.9290    3.1385   -0.0000 C   0  0  0  0  0  0  0  0  0  0  0  0
   -5.3450    1.6519   -0.0000 C   0  0  0  0  0  0  0  0  0  0  0  0
   -6.6429   -0.5900   -0.0000 C   0  0  0  0  0  0  0  0  0  0  0  0
   -6.6429    3.8937   -0.0000 C   0  0  0  0  0  0  0  0  0  0  0  0
   -9.2386    3.8937   -0.0000 C   0  0  0  0  0  0  0  0  0  0  0  0
   -5.3568    3.1621   -0.0000 C   0  0  0  0  0  0  0  0  0  0  0  0
   -4.0707    3.9173   -0.0000 C   0  0  0  0  0  0  0  0  0  0  0  0
   -2.7846    3.1857   -0.0000 C   0  0  0  0  0  0  0  0  0  0  0  0
   -1.4985    3.9409   -0.0000 C   0  0  0  0  0  0  0  0  0  0  0  0
   -0.2124    4.6960   -0.0000 N   0  0  0  0  0  0  0  0  0  0  0  0
  1  2  3  0  0  0  0
  2  3  1  0  0  0  0
  3  4  2  0  0  0  0
  3  5  1  0  0  0  0
  4  6  1  0  0  0  0
  5  7  2  0  0  0  0
  6  8  2  0  0  0  0
  8  9  1  0  0  0  0
  9 10  1  0  0  0  0
 10 11  2  0  0  0  0
 10 12  1  0  0  0  0
 11 13  1  0  0  0  0
 12 14  2  0  0  0  0
 13 15  1  0  0  0  0
 13 16  2  0  0  0  0
 15 17  1  0  0  0  0
 17 18  2  0  0  0  0
 17 19  1  0  0  0  0
 18 20  1  0  0  0  0
 18 21  1  0  0  0  0
 19 22  2  0  0  0  0
 19 23  1  0  0  0  0
 20 24  2  0  0  0  0
 24 25  1  0  0  0  0
 25 26  2  0  0  0  0
 26 27  1  0  0  0  0
 27 28  3  0  0  0  0
  7  8  1  0  0  0  0
 14 16  1  0  0  0  0
 22 24  1  0  0  0  0
M  END
>  <GENERIC_NAME>
Rilpivirine

>  <SYNONYMS>
TMC278

>  <cLogP>
4.7377

>  <cLogS>
-7.081

>  <H-Acceptors>
6

>  <H-Donors>
2

>  <Polar Surface Area>
97.42

>  <Druglikeness>
-5.0142

>  <Mutagenic>
none

>  <Tumorigenic>
none

>  <Reproductive Effective>
none

>  <Irritant>
none

>  <Nasty Functions>


>  <Symmetric atoms>
5

>  <Molecular Formula>
C22H18N6

>  <Total Molweight>
366.427

$$$$

Actelion Java MolfileCreator 1.0

 13 14  0  0  0  0  0  0  0  0999 V2000
    0.0000   -0.0000   -0.0000 O   0  0  0  0  0  0  0  0  0  0  0  0
   -0.0116    1.4843   -0.0000 C   0  0  0  0  0  0  0  0  0  0  0  0
    1.2524    2.2380   -0.0000 C   0  0  0  0  0  0  0  0  0  0  0  0
   -1.2988    2.2380   -0.0000 C   0  0  0  0  0  0  0  0  0  0  0  0
    1.2408    3.7223   -0.0000 C   0  0  0  0  0  0  0  0  0  0  0  0
    2.5627    1.4611   -0.0000 C   0  0  0  0  0  0  0  0  0  0  0  0
   -1.3103    3.7223   -0.0000 C   0  0  0  0  0  0  0  0  0  0  0  0
   -2.5859    1.5075   -0.0000 C   0  0  0  0  0  0  0  0  0  0  0  0
   -0.0464    4.4761   -0.0000 C   0  0  0  0  0  0  0  0  0  0  0  0
    2.5511    4.5224   -0.0000 C   0  0  0  0  0  0  0  0  0  0  0  0
    3.8847    2.2264   -0.0000 C   0  0  0  0  0  0  0  0  0  0  0  0
   -0.0580    5.9604   -0.0000 O   0  0  0  0  0  0  0  0  0  0  0  0
    3.8731    3.7803   -0.0000 C   0  0  0  0  0  0  0  0  0  0  0  0
  1  2  2  0  0  0  0
  2  3  1  0  0  0  0
  2  4  1  0  0  0  0
  3  5  2  0  0  0  0
  3  6  1  0  0  0  0
  4  7  2  0  0  0  0
  4  8  1  0  0  0  0
  5  9  1  0  0  0  0
  5 10  1  0  0  0  0
  6 11  2  0  0  0  0
  9 12  2  0  0  0  0
 10 13  2  0  0  0  0
  7  9  1  0  0  0  0
 11 13  1  0  0  0  0
M  END
>  <GENERIC_NAME>
Menadione

>  <SYNONYMS>
2-Methyl-1,4-Naphthalenedione; 2-Methyl-1,4-naphthoquinone; Kayquinone; Menaphthone; Thyloquinone; Vitamin K 3; Vitamin K3

>  <cLogP>
1.8796

>  <cLogS>
-2.966

>  <H-Acceptors>
2

>  <H-Donors>
0

>  <Polar Surface Area>
34.14

>  <Druglikeness>
-1.5482

>  <Mutagenic>
high

>  <Tumorigenic>
high

>  <Reproductive Effective>
high

>  <Irritant>
none

>  <Nasty Functions>


>  <Symmetric atoms>
0

>  <Molecular Formula>
C11H8O2

>  <Total Molweight>
172.183

$$$$

Actelion Java MolfileCreator 1.0

  1  0  0  0  0  0  0  0  0  0999 V2000
    0.0000   -0.0000   -0.0000 Fe  0  0  0  0  0  0  0  0  0  0  0  0
M  END
>  <GENERIC_NAME>
Iron

>  <SYNONYMS>


>  <cLogP>
0

>  <cLogS>
-0.53

>  <H-Acceptors>
0

>  <H-Donors>
0

>  <Polar Surface Area>
0

>  <Druglikeness>
-1

>  <Mutagenic>
none

>  <Tumorigenic>
high

>  <Reproductive Effective>
none

>  <Irritant>
none

>  <Nasty Functions>
unwanted atom

>  <Symmetric atoms>
0

>  <Molecular Formula>
Fe

>  <Total Molweight>
55.845

$$$$

Actelion Java MolfileCreator 1.0

 18 17  0  0  0  0  0  0  0  0999 V2000
    0.0000   -0.0000   -0.0000 N   0  0  0  0  0  0  0  0  0  0  0  0
    1.2949    0.7605   -0.0000 C   0  0  0  0  0  0  0  0  0  0  0  0
    0.7399   -1.2949   -0.0000 C   0  0  0  0  0  0  0  0  0  0  0  0
   -0.7605    1.3155   -0.0000 C   0  0  0  0  0  0  0  0  0  0  0  0
   -1.3155   -0.7399   -0.0000 C   0  0  0  0  0  0  0  0  0  0  0  0
    2.5898    0.0206   -0.0000 C   0  0  0  0  0  0  0  0  0  0  0  0
    3.8847    0.7811   -0.0000 C   0  0  0  0  0  0  0  0  0  0  0  0
    5.1796    0.0411   -0.0000 C   0  0  0  0  0  0  0  0  0  0  0  0
    6.4745    0.8016   -0.0000 C   0  0  0  0  0  0  0  0  0  0  0  0
    7.7694    0.0617   -0.0000 C   0  0  0  0  0  0  0  0  0  0  0  0
    9.0643    0.8222   -0.0000 C   0  0  0  0  0  0  0  0  0  0  0  0
   10.3592    0.0822   -0.0000 C   0  0  0  0  0  0  0  0  0  0  0  0
   11.6541    0.8427   -0.0000 C   0  0  0  0  0  0  0  0  0  0  0  0
   12.9490    0.1028   -0.0000 C   0  0  0  0  0  0  0  0  0  0  0  0
   14.2439    0.8633   -0.0000 N   0  0  0  0  0  0  0  0  0  0  0  0
   13.4834    2.1787   -0.0000 C   0  0  0  0  0  0  0  0  0  0  0  0
   14.9839   -0.4316   -0.0000 C   0  0  0  0  0  0  0  0  0  0  0  0
   15.5388    1.6238   -0.0000 C   0  0  0  0  0  0  0  0  0  0  0  0
  1  2  1  0  0  0  0
  1  3  1  0  0  0  0
  1  4  1  0  0  0  0
  1  5  1  0  0  0  0
  2  6  1  0  0  0  0
  6  7  1  0  0  0  0
  7  8  1  0  0  0  0
  8  9  1  0  0  0  0
  9 10  1  0  0  0  0
 10 11  1  0  0  0  0
 11 12  1  0  0  0  0
 12 13  1  0  0  0  0
 13 14  1  0  0  0  0
 14 15  1  0  0  0  0
 15 16  1  0  0  0  0
 15 17  1  0  0  0  0
 15 18  1  0  0  0  0
M  CHG  2   1   1  15   1
M  END
>  <GENERIC_NAME>
Decamethonium

>  <SYNONYMS>
Decamethonum

>  <cLogP>
-2.6762

>  <cLogS>
-0.86

>  <H-Acceptors>
2

>  <H-Donors>
0

>  <Polar Surface Area>
0

>  <Druglikeness>
-7.93

>  <Mutagenic>
none

>  <Tumorigenic>
none

>  <Reproductive Effective>
none

>  <Irritant>
none

>  <Nasty Functions>
quart. ammonium

>  <Symmetric atoms>
11

>  <Molecular Formula>
C16H38N2

>  <Total Molweight>
258.492

$$$$

Actelion Java MolfileCreator 1.0

 16 18  0  0  0  0  0  0  0  0999 V2000
    0.0000   -0.0000   -0.0000 N   0  0  0  0  0  0  0  0  0  0  0  0
    1.2598   -0.7166   -0.0000 C   0  0  0  0  0  0  0  0  0  0  0  0
   -1.2829   -0.7166   -0.0000 C   0  0  0  0  0  0  0  0  0  0  0  0
    1.2483   -2.1729   -0.0000 C   0  0  0  0  0  0  0  0  0  0  0  0
    2.5659    0.0809   -0.0000 C   0  0  0  0  0  0  0  0  0  0  0  0
   -1.2945   -2.1729   -0.0000 C   0  0  0  0  0  0  0  0  0  0  0  0
   -2.6121    0.0809   -0.0000 C   0  0  0  0  0  0  0  0  0  0  0  0
   -0.0347   -2.8895   -0.0000 C   0  0  0  0  0  0  0  0  0  0  0  0
    2.5543   -2.9473   -0.0000 C   0  0  0  0  0  0  0  0  0  0  0  0
    3.8835   -0.6588   -0.0000 C   0  0  0  0  0  0  0  0  0  0  0  0
   -2.6237   -2.9473   -0.0000 C   0  0  0  0  0  0  0  0  0  0  0  0
   -3.9529   -0.6588   -0.0000 C   0  0  0  0  0  0  0  0  0  0  0  0
    3.8720   -2.1845   -0.0000 C   0  0  0  0  0  0  0  0  0  0  0  0
    5.1434    0.0925   -0.0000 N   0  0  0  0  0  0  0  0  0  0  0  0
   -3.9644   -2.1845   -0.0000 C   0  0  0  0  0  0  0  0  0  0  0  0
   -5.2358    0.0925   -0.0000 N   0  0  0  0  0  0  0  0  0  0  0  0
  1  2  2  0  0  0  0
  1  3  1  0  0  0  0
  2  4  1  0  0  0  0
  2  5  1  0  0  0  0
  3  6  2  0  0  0  0
  3  7  1  0  0  0  0
  4  8  2  0  0  0  0
  4  9  1  0  0  0  0
  5 10  2  0  0  0  0
  6 11  1  0  0  0  0
  7 12  2  0  0  0  0
  9 13  2  0  0  0  0
 10 14  1  0  0  0  0
 11 15  2  0  0  0  0
 12 16  1  0  0  0  0
  6  8  1  0  0  0  0
 10 13  1  0  0  0  0
 12 15  1  0  0  0  0
M  END
>  <GENERIC_NAME>
Proflavine

>  <SYNONYMS>


>  <cLogP>
1.9379

>  <cLogS>
-3.975

>  <H-Acceptors>
3

>  <H-Donors>
2

>  <Polar Surface Area>
64.93

>  <Druglikeness>
-1.9084

>  <Mutagenic>
high

>  <Tumorigenic>
high

>  <Reproductive Effective>
none

>  <Irritant>
none

>  <Nasty Functions>


>  <Symmetric atoms>
7

>  <Molecular Formula>
C13H11N3

>  <Total Molweight>
209.251

$$$$

Actelion Java MolfileCreator 1.0

  1  0  0  0  0  0  0  0  0  0999 V2000
    0.0000   -0.0000   -0.0000 Li  0  0  0  0  0  0  0  0  0  0  0  0
M  CHG  1   1   1
M  END
>  <GENERIC_NAME>
Lithium

>  <SYNONYMS>


>  <cLogP>
0

>  <cLogS>
-0.53

>  <H-Acceptors>
0

>  <H-Donors>
0

>  <Polar Surface Area>
0

>  <Druglikeness>
-1

>  <Mutagenic>
none

>  <Tumorigenic>
none

>  <Reproductive Effective>
none

>  <Irritant>
none

>  <Nasty Functions>


>  <Symmetric atoms>
0

>  <Molecular Formula>
Li

>  <Total Molweight>
6.941

$$$$

Actelion Java MolfileCreator 1.0

  6  6  0  0  0  0  0  0  0  0999 V2000
    0.0000   -0.0000   -0.0000 N   0  0  0  0  0  0  0  0  0  0  0  0
    1.2822    0.7529   -0.0000 C   0  0  0  0  0  0  0  0  0  0  0  0
   -1.3058    0.7529   -0.0000 C   0  0  0  0  0  0  0  0  0  0  0  0
    1.2705    2.2586   -0.0000 C   0  0  0  0  0  0  0  0  0  0  0  0
   -1.3175    2.2586   -0.0000 C   0  0  0  0  0  0  0  0  0  0  0  0
   -0.0353    3.0115   -0.0000 N   0  0  0  0  0  0  0  0  0  0  0  0
  1  2  1  0  0  0  0
  1  3  1  0  0  0  0
  2  4  1  0  0  0  0
  3  5  1  0  0  0  0
  4  6  1  0  0  0  0
  5  6  1  0  0  0  0
M  END
>  <GENERIC_NAME>
Piperazine

>  <SYNONYMS>
Diethylenediamine; Diethyleneimine; fluphenazine dihydrochloride; Hexahydropyrazine; Piperazin; Piperazin [Germany]; Piperazine hexahydrate; Piperazine hydrate

>  <cLogP>
-0.563

>  <cLogS>
-0.1

>  <H-Acceptors>
2

>  <H-Donors>
2

>  <Polar Surface Area>
24.06

>  <Druglikeness>
0.77302

>  <Mutagenic>
high

>  <Tumorigenic>
none

>  <Reproductive Effective>
none

>  <Irritant>
high

>  <Nasty Functions>


>  <Symmetric atoms>
4

>  <Molecular Formula>
C4H10N2

>  <Total Molweight>
86.1374

$$$$

Actelion Java MolfileCreator 1.0

 23 26  0  0  0  0  0  0  0  0999 V2000
    0.0000   -0.0000   -0.0000 O   0  0  0  0  0  0  0  0  0  0  0  0
    1.2650    0.7390   -0.0000 C   0  0  0  0  0  0  0  0  0  0  0  0
    2.6302   -0.0501   -0.0000 C   0  0  0  0  0  0  0  0  0  0  0  0
    1.2650    2.3421   -0.0000 C   0  0  0  0  0  0  0  0  0  0  0  0
    3.9954    0.7640   -0.0000 C   0  0  0  0  0  0  0  0  0  0  0  0
    2.6427    3.1312   -0.0000 C   0  0  0  0  0  0  0  0  0  0  0  0
    3.9954    2.3046   -0.0000 C   0  0  0  0  0  0  0  0  0  0  0  0
    5.3105    0.0125   -0.0000 C   0  0  0  0  0  0  0  0  0  0  0  0
    5.3231    3.0561   -0.0000 C   0  0  0  0  0  0  0  0  0  0  0  0
    3.9954    3.7825   -0.0000 C   0  0  0  0  0  0  0  0  0  0  0  0
    6.6131    0.8016   -0.0000 C   0  0  0  0  0  0  0  0  0  0  0  0
    6.5755    2.3296   -0.0000 C   0  0  0  0  0  0  0  0  0  0  0  0
    5.3105    4.5340   -0.0000 C   0  0  0  0  0  0  0  0  0  0  0  0
    7.8280    3.0811   -0.0000 C   0  0  0  0  0  0  0  0  0  0  0  0
    6.5630    5.2855   -0.0000 C   0  0  0  0  0  0  0  0  0  0  0  0
    7.8155    4.5590   -0.0000 C   0  0  0  0  0  0  0  0  0  0  0  0
    9.2058    2.6427   -0.0000 C   0  0  0  0  0  0  0  0  0  0  0  0
    9.1932    5.0225   -0.0000 C   0  0  0  0  0  0  0  0  0  0  0  0
    7.8030    6.0370   -0.0000 C   0  0  0  0  0  0  0  0  0  0  0  0
   10.0449    3.8326   -0.0000 C   0  0  0  0  0  0  0  0  0  0  0  0
    9.6316    6.4252   -0.0000 C   0  0  0  0  0  0  0  0  0  0  0  0
    8.6421    7.5274   -0.0000 O   0  0  0  0  0  0  0  0  0  0  0  0
   11.0594    6.7384   -0.0000 C   0  0  0  0  0  0  0  0  0  0  0  0
  1  2  2  0  0  0  0
  2  3  1  0  0  0  0
  2  4  1  0  0  0  0
  3  5  2  0  0  0  0
  4  6  1  0  0  0  0
  5  7  1  0  0  0  0
  5  8  1  0  0  0  0
  7  9  1  0  0  0  0
  7 10  1  6  0  0  0
  8 11  1  0  0  0  0
  9 12  1  0  0  0  0
  9 13  1  6  0  0  0
 12 14  1  0  0  0  0
 13 15  1  0  0  0  0
 14 16  1  0  0  0  0
 14 17  1  6  0  0  0
 16 18  1  0  0  0  0
 16 19  1  6  0  0  0
 17 20  1  0  0  0  0
 18 21  1  6  0  0  0
 21 22  2  0  0  0  0
 21 23  1  0  0  0  0
  6  7  1  0  0  0  0
 12 11  1  1  0  0  0
 15 16  1  0  0  0  0
 18 20  1  0  0  0  0
M  END
>  <GENERIC_NAME>
Progesterone

>  <SYNONYMS>
Corpus Luteum Hormone; Progesterona [INN-Spanish]; Progesteronum; Progesteronum [INN-Latin]

>  <cLogP>
4.019

>  <cLogS>
-4.542

>  <H-Acceptors>
2

>  <H-Donors>
0

>  <Polar Surface Area>
34.14

>  <Druglikeness>
0.77149

>  <Mutagenic>
none

>  <Tumorigenic>
none

>  <Reproductive Effective>
high

>  <Irritant>
none

>  <Nasty Functions>


>  <Symmetric atoms>
0

>  <Molecular Formula>
C21H30O2

>  <Total Molweight>
314.467

$$$$

Actelion Java MolfileCreator 1.0

  2  1  0  0  0  0  0  0  0  0999 V2000
    0.0000   -0.0000   -0.0000 O   0  0  0  0  0  0  0  0  0  0  0  0
    1.5000   -0.0000   -0.0000 N   0  0  0  0  0  0  0  0  0  0  0  0
  1  2  2  0  0  0  0
M  RAD  1   2   2
M  END
>  <GENERIC_NAME>
Nitric Oxide

>  <SYNONYMS>


>  <cLogP>
-0.5015

>  <cLogS>
-0.338

>  <H-Acceptors>
2

>  <H-Donors>
0

>  <Polar Surface Area>
29.43

>  <Druglikeness>
-1.9719

>  <Mutagenic>
high

>  <Tumorigenic>
none

>  <Reproductive Effective>
none

>  <Irritant>
none

>  <Nasty Functions>


>  <Symmetric atoms>
0

>  <Molecular Formula>
NO

>  <Total Molweight>
30.006

$$$$

Actelion Java MolfileCreator 1.0

  7  6  0  0  0  0  0  0  0  0999 V2000
    0.0000   -0.0000   -0.0000 Br  0  0  0  0  0  0  0  0  0  0  0  0
   -1.3077    0.7540   -0.0000 C   0  0  0  0  0  0  0  0  0  0  0  0
   -1.3195    2.2619   -0.0000 Cl  0  0  0  0  0  0  0  0  0  0  0  0
   -2.6154    0.0236   -0.0000 C   0  0  0  0  0  0  0  0  0  0  0  0
   -3.9231   -0.7069   -0.0000 F   0  0  0  0  0  0  0  0  0  0  0  0
   -3.3694    1.3312   -0.0000 F   0  0  0  0  0  0  0  0  0  0  0  0
   -1.8850   -1.2606   -0.0000 F   0  0  0  0  0  0  0  0  0  0  0  0
  2  1  1  1  0  0  0
  2  3  1  0  0  0  0
  2  4  1  0  0  0  0
  4  5  1  0  0  0  0
  4  6  1  0  0  0  0
  4  7  1  0  0  0  0
M  END
>  <GENERIC_NAME>
Halothane

>  <SYNONYMS>
2-Bromo-2-Chloro-1,1,1-Trifluoroethane; Alotano [Dcit]; Bromchlortrifluoraethanum; Bromochlorotrifluoroethane; Cf3chclbr; Fluorotane; Fluorothane; Freon 123b1; Ftorotan [Russian]; Ftuorotan; Halotano [INN-Spanish]; Halothan; Halothanum [INN-Latin]; Narcot<NL>nn Ne-Spofa [Russian]

>  <cLogP>
2.224

>  <cLogS>
-2.564

>  <H-Acceptors>
0

>  <H-Donors>
0

>  <Polar Surface Area>
0

>  <Druglikeness>
-12.683

>  <Mutagenic>
high

>  <Tumorigenic>
high

>  <Reproductive Effective>
low

>  <Irritant>
none

>  <Nasty Functions>
sec./tert. alkyl-bromide/iodide

>  <Symmetric atoms>
2

>  <Molecular Formula>
C2HBrClF3

>  <Total Molweight>
197.381

$$$$

Actelion Java MolfileCreator 1.0

  1  0  0  0  0  0  0  0  0  0999 V2000
    0.0000   -0.0000   -0.0000 Zn  0  0  0  0  0  0  0  0  0  0  0  0
M  END
>  <GENERIC_NAME>
Zinc

>  <SYNONYMS>


>  <cLogP>
0

>  <cLogS>
-0.53

>  <H-Acceptors>
0

>  <H-Donors>
0

>  <Polar Surface Area>
0

>  <Druglikeness>
-1

>  <Mutagenic>
high

>  <Tumorigenic>
high

>  <Reproductive Effective>
none

>  <Irritant>
high

>  <Nasty Functions>
unwanted atom

>  <Symmetric atoms>
0

>  <Molecular Formula>
Zn

>  <Total Molweight>
65.39

$$$$

Actelion Java MolfileCreator 1.0

  7  7  0  0  0  0  0  0  0  0999 V2000
    0.0000   -0.0000   -0.0000 O   0  0  0  0  0  0  0  0  0  0  0  0
   -0.0119   -1.4981   -0.0000 C   0  0  0  0  0  0  0  0  0  0  0  0
    1.2841   -2.2353   -0.0000 C   0  0  0  0  0  0  0  0  0  0  0  0
   -1.3317   -2.2353   -0.0000 C   0  0  0  0  0  0  0  0  0  0  0  0
    1.2722   -3.7335   -0.0000 C   0  0  0  0  0  0  0  0  0  0  0  0
   -1.3436   -3.7335   -0.0000 C   0  0  0  0  0  0  0  0  0  0  0  0
   -0.0476   -4.4706   -0.0000 C   0  0  0  0  0  0  0  0  0  0  0  0
  1  2  1  0  0  0  0
  2  3  2  0  0  0  0
  2  4  1  0  0  0  0
  3  5  1  0  0  0  0
  4  6  2  0  0  0  0
  5  7  2  0  0  0  0
  6  7  1  0  0  0  0
M  END
>  <GENERIC_NAME>
Phenol

>  <SYNONYMS>
Benzenol; Carbolic acid; Hydroxybenzene; Monohydroxybenzene; Phenic Acid; Phenyl alcohol; Phenyl hydroxide; Phenylic Acid

>  <cLogP>
1.3139

>  <cLogS>
-1.32

>  <H-Acceptors>
1

>  <H-Donors>
1

>  <Polar Surface Area>
20.23

>  <Druglikeness>
-2.2721

>  <Mutagenic>
high

>  <Tumorigenic>
high

>  <Reproductive Effective>
high

>  <Irritant>
high

>  <Nasty Functions>


>  <Symmetric atoms>
2

>  <Molecular Formula>
C6H6O

>  <Total Molweight>
94.1126

$$$$

Actelion Java MolfileCreator 1.0

  3  0  0  0  0  0  0  0  0  0999 V2000
    0.0000   -0.0000   -0.0000 Ca  0  0  0  0  0  0  0  0  0  0  0  0
    3.9375    2.3125   -0.0000 Cl  0  0  0  0  0  0  0  0  0  0  0  0
    3.9375    2.3125   -0.0000 Cl  0  0  0  0  0  0  0  0  0  0  0  0
M  CHG  3   1   2   2  -1   3  -1
M  END
>  <GENERIC_NAME>
Calcium Chloride

>  <SYNONYMS>
Anhydrous calcium chloride; Calcium chloride anhydrous; Calcium chloride dihydrate; Calcium Chloride Dihydrate BP; Calcium chloride fused; Calcium chloride pellets; Calcium chloride, dihydrate; Chip calcium chloride; Liquid calcium chloride

>  <cLogP>
0

>  <cLogS>
-0.53

>  <H-Acceptors>
0

>  <H-Donors>
0

>  <Polar Surface Area>
0

>  <Druglikeness>
-2.0875

>  <Mutagenic>
none

>  <Tumorigenic>
none

>  <Reproductive Effective>
none

>  <Irritant>
none

>  <Nasty Functions>


>  <Symmetric atoms>
0

>  <Molecular Formula>
Ca.Cl.Cl

>  <Total Molweight>
110.984

$$$$

Actelion Java MolfileCreator 1.0

 15 15  0  0  0  0  0  0  0  0999 V2000
    0.0000   -0.0000   -0.0000 N   0  0  0  0  0  0  0  0  0  0  0  0
   -1.3109    0.7558   -0.0000 C   0  0  0  0  0  0  0  0  0  0  0  0
   -0.0118   -1.4881   -0.0000 C   0  0  0  0  0  0  0  0  0  0  0  0
   -2.6218    0.0236   -0.0000 N   0  0  0  0  0  0  0  0  0  0  0  0
   -1.3227    2.2675   -0.0000 N   0  0  0  0  0  0  0  0  0  0  0  0
   -1.3227   -2.2203   -0.0000 N   0  0  0  0  0  0  0  0  0  0  0  0
    1.2755   -2.2203   -0.0000 N   0  0  0  0  0  0  0  0  0  0  0  0
   -2.6336   -1.4644   -0.0000 C   0  0  0  0  0  0  0  0  0  0  0  0
   -2.6336    3.0352   -0.0000 C   0  0  0  0  0  0  0  0  0  0  0  0
   -0.0354    3.0352   -0.0000 C   0  0  0  0  0  0  0  0  0  0  0  0
    1.2637   -3.7083   -0.0000 C   0  0  0  0  0  0  0  0  0  0  0  0
    2.5628   -1.4644   -0.0000 C   0  0  0  0  0  0  0  0  0  0  0  0
   -3.9445   -2.1967   -0.0000 N   0  0  0  0  0  0  0  0  0  0  0  0
   -3.9563   -3.6847   -0.0000 C   0  0  0  0  0  0  0  0  0  0  0  0
   -5.2554   -1.4408   -0.0000 C   0  0  0  0  0  0  0  0  0  0  0  0
  1  2  2  0  0  0  0
  1  3  1  0  0  0  0
  2  4  1  0  0  0  0
  2  5  1  0  0  0  0
  3  6  2  0  0  0  0
  3  7  1  0  0  0  0
  4  8  2  0  0  0  0
  5  9  1  0  0  0  0
  5 10  1  0  0  0  0
  7 11  1  0  0  0  0
  7 12  1  0  0  0  0
  8 13  1  0  0  0  0
 13 14  1  0  0  0  0
 13 15  1  0  0  0  0
  6  8  1  0  0  0  0
M  END
>  <GENERIC_NAME>
Altretamine

>  <SYNONYMS>
Altretaminum [INN-Latin]; HEXAMETHYLMELAMINE; HMM; HTM; HXM

>  <cLogP>
0.7704

>  <cLogS>
-1.91

>  <H-Acceptors>
6

>  <H-Donors>
0

>  <Polar Surface Area>
48.39

>  <Druglikeness>
0.40939

>  <Mutagenic>
high

>  <Tumorigenic>
high

>  <Reproductive Effective>
high

>  <Irritant>
high

>  <Nasty Functions>


>  <Symmetric atoms>
11

>  <Molecular Formula>
C9H18N6

>  <Total Molweight>
210.284

$$$$

Actelion Java MolfileCreator 1.0

 21 24  0  0  0  0  0  0  0  0999 V2000
    0.0000   -0.0000   -0.0000 O   0  0  0  0  0  0  0  0  0  0  0  0
   -0.0134    1.5002   -0.0000 O   0  0  0  0  0  0  0  0  0  0  0  0
    1.6878   -0.1206   -0.0000 C   0  0  0  0  0  0  0  0  0  0  0  0
   -1.4601    1.1252   -0.0000 C   0  0  0  0  0  0  0  0  0  0  0  0
    0.3885   -0.8439   -0.0000 C   0  0  0  0  0  0  0  0  0  0  0  0
    1.6744    1.3797   -0.0000 C   0  0  0  0  0  0  0  0  0  0  0  0
    2.9737   -0.8573   -0.0000 C   0  0  0  0  0  0  0  0  0  0  0  0
   -1.0314   -0.2947   -0.0000 O   0  0  0  0  0  0  0  0  0  0  0  0
   -0.6296    2.5183   -0.0000 C   0  0  0  0  0  0  0  0  0  0  0  0
   -2.9469    1.1386   -0.0000 C   0  0  0  0  0  0  0  0  0  0  0  0
    0.3751   -2.3441   -0.0000 O   0  0  0  0  0  0  0  0  0  0  0  0
    2.9603    2.1432   -0.0000 C   0  0  0  0  0  0  0  0  0  0  0  0
    0.8573    2.4915   -0.0000 C   0  0  0  0  0  0  0  0  0  0  0  0
    2.9603   -2.3441   -0.0000 C   0  0  0  0  0  0  0  0  0  0  0  0
    4.2462   -0.0938   -0.0000 C   0  0  0  0  0  0  0  0  0  0  0  0
    1.6476   -3.0809   -0.0000 C   0  0  0  0  0  0  0  0  0  0  0  0
    4.2328    1.4065   -0.0000 C   0  0  0  0  0  0  0  0  0  0  0  0
    2.9469    3.6434   -0.0000 C   0  0  0  0  0  0  0  0  0  0  0  0
    4.2328   -3.0675   -0.0000 C   0  0  0  0  0  0  0  0  0  0  0  0
    1.6342   -4.5543   -0.0000 O   0  0  0  0  0  0  0  0  0  0  0  0
    0.3215   -5.3044   -0.0000 C   0  0  0  0  0  0  0  0  0  0  0  0
  1  2  1  0  0  0  0
  3  1  1  6  0  0  0
  2  4  1  0  0  0  0
  3  5  1  0  0  0  0
  3  6  1  0  0  0  0
  3  7  1  0  0  0  0
  4  8  1  0  0  0  0
  4  9  1  0  0  0  0
  4 10  1  6  0  0  0
  5 11  1  6  0  0  0
  6 12  1  0  0  0  0
  6 13  1  1  0  0  0
  7 14  1  0  0  0  0
  7 15  1  1  0  0  0
 11 16  1  0  0  0  0
 12 17  1  0  0  0  0
 12 18  1  6  0  0  0
 14 19  1  1  0  0  0
 16 20  1  1  0  0  0
 20 21  1  0  0  0  0
  5  8  1  0  0  0  0
  9 13  1  0  0  0  0
 14 16  1  0  0  0  0
 15 17  1  0  0  0  0
M  END
>  <GENERIC_NAME>
Artemether

>  <SYNONYMS>
Dihydroartemisinin methyl ether; Dihydroqinghaosu methyl ether; SM-224

>  <cLogP>
2.9012

>  <cLogS>
-3.25

>  <H-Acceptors>
5

>  <H-Donors>
0

>  <Polar Surface Area>
46.15

>  <Druglikeness>
-5.5252

>  <Mutagenic>
none

>  <Tumorigenic>
high

>  <Reproductive Effective>
none

>  <Irritant>
high

>  <Nasty Functions>
peroxo

>  <Symmetric atoms>
0

>  <Molecular Formula>
C16H26O5

>  <Total Molweight>
298.377

$$$$

Actelion Java MolfileCreator 1.0

 16 18  0  0  0  0  0  0  0  0999 V2000
    0.0000   -0.0000   -0.0000 O   0  0  0  0  0  0  0  0  0  0  0  0
    1.2743   -0.7352   -0.0000 C   0  0  0  0  0  0  0  0  0  0  0  0
    2.6099    0.0490   -0.0000 O   0  0  0  0  0  0  0  0  0  0  0  0
    1.2621   -2.2790   -0.0000 C   0  0  0  0  0  0  0  0  0  0  0  0
    3.9332   -0.7352   -0.0000 C   0  0  0  0  0  0  0  0  0  0  0  0
    2.5976   -3.0387   -0.0000 C   0  0  0  0  0  0  0  0  0  0  0  0
    5.2198    0.0245   -0.0000 C   0  0  0  0  0  0  0  0  0  0  0  0
    3.9209   -2.2178   -0.0000 C   0  0  0  0  0  0  0  0  0  0  0  0
    5.2075    1.5316   -0.0000 O   0  0  0  0  0  0  0  0  0  0  0  0
    6.5063   -0.7107   -0.0000 C   0  0  0  0  0  0  0  0  0  0  0  0
    5.2075   -2.9530   -0.0000 C   0  0  0  0  0  0  0  0  0  0  0  0
    6.4941    2.2913   -0.0000 C   0  0  0  0  0  0  0  0  0  0  0  0
    7.9031   -0.2451   -0.0000 O   0  0  0  0  0  0  0  0  0  0  0  0
    6.4941   -2.1933   -0.0000 C   0  0  0  0  0  0  0  0  0  0  0  0
    8.7609   -1.4336   -0.0000 C   0  0  0  0  0  0  0  0  0  0  0  0
    7.8909   -2.6344   -0.0000 C   0  0  0  0  0  0  0  0  0  0  0  0
  1  2  2  0  0  0  0
  2  3  1  0  0  0  0
  2  4  1  0  0  0  0
  3  5  1  0  0  0  0
  4  6  2  0  0  0  0
  5  7  2  0  0  0  0
  5  8  1  0  0  0  0
  7  9  1  0  0  0  0
  7 10  1  0  0  0  0
  8 11  2  0  0  0  0
  9 12  1  0  0  0  0
 10 13  1  0  0  0  0
 10 14  2  0  0  0  0
 13 15  1  0  0  0  0
 14 16  1  0  0  0  0
  6  8  1  0  0  0  0
 11 14  1  0  0  0  0
 15 16  2  0  0  0  0
M  END
>  <GENERIC_NAME>
Methoxsalen

>  <SYNONYMS>
Methoxalen; Xanthotoxin; Xanthotoxine; Xanthoxin; Zanthotoxin

>  <cLogP>
1.879

>  <cLogS>
-3.547

>  <H-Acceptors>
4

>  <H-Donors>
0

>  <Polar Surface Area>
48.67

>  <Druglikeness>
-3.3751

>  <Mutagenic>
high

>  <Tumorigenic>
high

>  <Reproductive Effective>
high

>  <Irritant>
none

>  <Nasty Functions>


>  <Symmetric atoms>
0

>  <Molecular Formula>
C12H8O4

>  <Total Molweight>
216.192

$$$$

Actelion Java MolfileCreator 1.0

  4  3  0  0  0  0  0  0  0  0999 V2000
    0.0000   -0.0000   -0.0000 S   0  0  0  0  0  0  0  0  0  0  0  0
   -1.3044   -0.7337   -0.0000 C   0  0  0  0  0  0  0  0  0  0  0  0
   -2.6089    0.0204   -0.0000 C   0  0  0  0  0  0  0  0  0  0  0  0
   -3.9133   -0.7134   -0.0000 N   0  0  0  0  0  0  0  0  0  0  0  0
  1  2  1  0  0  0  0
  2  3  1  0  0  0  0
  3  4  1  0  0  0  0
M  END
>  <GENERIC_NAME>
Cysteamine

>  <SYNONYMS>
(2-Mercaptoethyl)amine; 2-Amino-1-ethanethiol; 2-Aminoethanethiol; 2-Aminoethyl mercaptan; 2-Mercaptoethanamine; Aminoethyl mercaptan; beta-Aminoethanethiol; beta-MEA; beta-Mercaptoethylamine; Cisteamina; Cysteamide; Cysteamin; Cysteinamine; Decarboxycyst<NL>ine; Ethanethiolamine; MEA; Mercamine; Mercaptamin; Thioethanolamine

>  <cLogP>
-0.4145

>  <cLogS>
-1.21

>  <H-Acceptors>
1

>  <H-Donors>
1

>  <Polar Surface Area>
64.82

>  <Druglikeness>
-6.1884

>  <Mutagenic>
high

>  <Tumorigenic>
none

>  <Reproductive Effective>
high

>  <Irritant>
none

>  <Nasty Functions>


>  <Symmetric atoms>
0

>  <Molecular Formula>
C2H7NS

>  <Total Molweight>
77.1506

$$$$

Actelion Java MolfileCreator 1.0

 16 17  0  0  0  0  0  0  0  0999 V2000
    0.0000   -0.0000   -0.0000 N   0  0  0  0  0  0  0  0  0  0  0  0
   -1.3053    0.7526   -0.0000 C   0  0  0  0  0  0  0  0  0  0  0  0
    1.2818    0.7526   -0.0000 C   0  0  0  0  0  0  0  0  0  0  0  0
   -2.6107    0.0235   -0.0000 N   0  0  0  0  0  0  0  0  0  0  0  0
   -1.3171    2.2579   -0.0000 C   0  0  0  0  0  0  0  0  0  0  0  0
    2.5636    0.0235   -0.0000 N   0  0  0  0  0  0  0  0  0  0  0  0
    1.2701    2.2579   -0.0000 C   0  0  0  0  0  0  0  0  0  0  0  0
   -2.6224    3.0105   -0.0000 N   0  0  0  0  0  0  0  0  0  0  0  0
   -0.0353    3.0105   -0.0000 C   0  0  0  0  0  0  0  0  0  0  0  0
   -2.6342    4.5157   -0.0000 N   0  0  0  0  0  0  0  0  0  0  0  0
   -3.9395    5.2684   -0.0000 C   0  0  0  0  0  0  0  0  0  0  0  0
   -5.2448    4.5393   -0.0000 C   0  0  0  0  0  0  0  0  0  0  0  0
   -3.9513    6.7736   -0.0000 C   0  0  0  0  0  0  0  0  0  0  0  0
   -6.5502    5.2919   -0.0000 C   0  0  0  0  0  0  0  0  0  0  0  0
   -5.2566    7.5262   -0.0000 C   0  0  0  0  0  0  0  0  0  0  0  0
   -6.5619    6.7971   -0.0000 C   0  0  0  0  0  0  0  0  0  0  0  0
  1  2  2  0  0  0  0
  1  3  1  0  0  0  0
  2  4  1  0  0  0  0
  2  5  1  0  0  0  0
  3  6  1  0  0  0  0
  3  7  2  0  0  0  0
  5  8  1  0  0  0  0
  5  9  2  0  0  0  0
  8 10  2  0  0  0  0
 10 11  1  0  0  0  0
 11 12  2  0  0  0  0
 11 13  1  0  0  0  0
 12 14  1  0  0  0  0
 13 15  2  0  0  0  0
 14 16  2  0  0  0  0
  7  9  1  0  0  0  0
 15 16  1  0  0  0  0
M  END
>  <GENERIC_NAME>
Phenazopyridine

>  <SYNONYMS>
Pyridacil

>  <cLogP>
2.2091

>  <cLogS>
-4.515

>  <H-Acceptors>
5

>  <H-Donors>
2

>  <Polar Surface Area>
89.65

>  <Druglikeness>
-5.855

>  <Mutagenic>
low

>  <Tumorigenic>
high

>  <Reproductive Effective>
low

>  <Irritant>
low

>  <Nasty Functions>
azo

>  <Symmetric atoms>
2

>  <Molecular Formula>
C11H11N5

>  <Total Molweight>
213.243

$$$$

Actelion Java MolfileCreator 1.0

  4  0  0  0  0  0  0  0  0  0999 V2000
    0.0000   -0.0000   -0.0000 Al  0  0  0  0  0  0  0  0  0  0  0  0
    3.9375    2.3125   -0.0000 O   0  0  0  0  0  0  0  0  0  0  0  0
    3.9375    2.3125   -0.0000 O   0  0  0  0  0  0  0  0  0  0  0  0
    3.9375    2.3125   -0.0000 O   0  0  0  0  0  0  0  0  0  0  0  0
M  CHG  4   1   3   2  -1   3  -1   4  -1
M  END
>  <GENERIC_NAME>
Aluminum hydroxide

>  <SYNONYMS>


>  <cLogP>
0

>  <cLogS>
-0.53

>  <H-Acceptors>
0

>  <H-Donors>
0

>  <Polar Surface Area>
0

>  <Druglikeness>
-1

>  <Mutagenic>
none

>  <Tumorigenic>
none

>  <Reproductive Effective>
none

>  <Irritant>
none

>  <Nasty Functions>
unwanted atom

>  <Symmetric atoms>
0

>  <Molecular Formula>
Al.HO.HO.HO

>  <Total Molweight>
78.0028

$$$$

Actelion Java MolfileCreator 1.0

 12 12  0  0  1  0  0  0  0  0999 V2000
    0.0000   -0.0000   -0.0000 Cl  0  0  0  0  0  0  0  0  0  0  0  0
    1.2908    0.7579   -0.0000 C   0  0  0  0  0  0  0  0  0  0  0  0
    2.5817    0.0237   -0.0000 C   0  0  0  0  0  0  0  0  0  0  0  0
    1.2790    2.2738   -0.0000 C   0  0  0  0  0  0  0  0  0  0  0  0
    2.5698   -1.4685   -0.0000 Cl  0  0  0  0  0  0  0  0  0  0  0  0
    3.8725    0.7816   -0.0000 C   0  0  0  0  0  0  0  0  0  0  0  0
   -0.0355    3.0317   -0.0000 Cl  0  0  0  0  0  0  0  0  0  0  0  0
    2.5698    3.0317   -0.0000 C   0  0  0  0  0  0  0  0  0  0  0  0
    5.1634    0.0474   -0.0000 Cl  0  0  0  0  0  0  0  0  0  0  0  0
    3.8607    2.2975   -0.0000 C   0  0  0  0  0  0  0  0  0  0  0  0
    2.5580    4.5475   -0.0000 Cl  0  0  0  0  0  0  0  0  0  0  0  0
    5.1515    3.0554   -0.0000 Cl  0  0  0  0  0  0  0  0  0  0  0  0
  2  1  1  6  0  0  0
  2  3  1  0  0  0  0
  2  4  1  0  0  0  0
  3  5  1  1  0  0  0
  3  6  1  0  0  0  0
  4  7  1  6  0  0  0
  4  8  1  0  0  0  0
  6  9  1  6  0  0  0
  6 10  1  0  0  0  0
  8 11  1  1  0  0  0
 10 12  1  6  0  0  0
  8 10  1  0  0  0  0
M  END
>  <GENERIC_NAME>
Lindane

>  <SYNONYMS>
Benzene hexachloride; gamma-BHC; gamma-HCH; gamma-Hexachlorocyclohexane; Lindan; γ-benzene hexachloride; γ-BHC; γ-HCH; γ-hexachlorocyclohexane; γ-Hexachlorzyklohexan; γ-lindane

>  <cLogP>
3.762

>  <cLogS>
-4.112

>  <H-Acceptors>
0

>  <H-Donors>
0

>  <Polar Surface Area>
0

>  <Druglikeness>
-0.92105

>  <Mutagenic>
low

>  <Tumorigenic>
low

>  <Reproductive Effective>
low

>  <Irritant>
low

>  <Nasty Functions>


>  <Symmetric atoms>
10

>  <Molecular Formula>
C6H6Cl6

>  <Total Molweight>
290.832

$$$$

Actelion Java MolfileCreator 1.0

 16 17  0  0  0  0  0  0  0  0999 V2000
    0.0000   -0.0000   -0.0000 O   0  0  0  0  0  0  0  0  0  0  0  0
    1.2928   -0.7472   -0.0000 C   0  0  0  0  0  0  0  0  0  0  0  0
    2.5857    0.0237   -0.0000 O   0  0  0  0  0  0  0  0  0  0  0  0
    1.2810   -2.2417   -0.0000 C   0  0  0  0  0  0  0  0  0  0  0  0
    2.5738    1.5419   -0.0000 C   0  0  0  0  0  0  0  0  0  0  0  0
    2.5738   -2.9771   -0.0000 C   0  0  0  0  0  0  0  0  0  0  0  0
   -0.0356   -2.9771   -0.0000 C   0  0  0  0  0  0  0  0  0  0  0  0
    3.8667    2.3010   -0.0000 C   0  0  0  0  0  0  0  0  0  0  0  0
    2.5620   -4.4716   -0.0000 C   0  0  0  0  0  0  0  0  0  0  0  0
   -0.0474   -4.4716   -0.0000 C   0  0  0  0  0  0  0  0  0  0  0  0
    3.8548    3.8192   -0.0000 C   0  0  0  0  0  0  0  0  0  0  0  0
    5.1595    1.5656   -0.0000 C   0  0  0  0  0  0  0  0  0  0  0  0
    1.2454   -5.2070   -0.0000 C   0  0  0  0  0  0  0  0  0  0  0  0
    5.1477    4.5783   -0.0000 C   0  0  0  0  0  0  0  0  0  0  0  0
    6.4524    2.3247   -0.0000 C   0  0  0  0  0  0  0  0  0  0  0  0
    6.4405    3.8429   -0.0000 C   0  0  0  0  0  0  0  0  0  0  0  0
  1  2  2  0  0  0  0
  2  3  1  0  0  0  0
  2  4  1  0  0  0  0
  3  5  1  0  0  0  0
  4  6  2  0  0  0  0
  4  7  1  0  0  0  0
  5  8  1  0  0  0  0
  6  9  1  0  0  0  0
  7 10  2  0  0  0  0
  8 11  2  0  0  0  0
  8 12  1  0  0  0  0
  9 13  2  0  0  0  0
 11 14  1  0  0  0  0
 12 15  2  0  0  0  0
 14 16  2  0  0  0  0
 10 13  1  0  0  0  0
 15 16  1  0  0  0  0
M  END
>  <GENERIC_NAME>
Benzyl Benzoate

>  <SYNONYMS>


>  <cLogP>
2.9907

>  <cLogS>
-3.08

>  <H-Acceptors>
2

>  <H-Donors>
0

>  <Polar Surface Area>
26.3

>  <Druglikeness>
-1.5588

>  <Mutagenic>
none

>  <Tumorigenic>
none

>  <Reproductive Effective>
none

>  <Irritant>
high

>  <Nasty Functions>


>  <Symmetric atoms>
4

>  <Molecular Formula>
C14H12O2

>  <Total Molweight>
212.247

$$$$

Actelion Java MolfileCreator 1.0

  2  1  0  0  0  0  0  0  0  0999 V2000
    0.0000   -0.0000   -0.0000 Se  0  0  0  0  0  0  0  0  0  0  0  0
    1.5000    0.0119   -0.0000 S   0  0  0  0  0  0  0  0  0  0  0  0
  1  2  2  0  0  0  0
M  END
>  <GENERIC_NAME>
Selenium Sulfide

>  <SYNONYMS>
Selenium Disulfide; Selenium sulfide red powder; Selenium sulphide

>  <cLogP>
0.4244

>  <cLogS>
-1.05

>  <H-Acceptors>
0

>  <H-Donors>
0

>  <Polar Surface Area>
32.09

>  <Druglikeness>
-4.2875

>  <Mutagenic>
high

>  <Tumorigenic>
high

>  <Reproductive Effective>
none

>  <Irritant>
none

>  <Nasty Functions>
unwanted atom

>  <Symmetric atoms>
0

>  <Molecular Formula>
SSe

>  <Total Molweight>
111.026

$$$$

Actelion Java MolfileCreator 1.0

 17 18  0  0  0  0  0  0  0  0999 V2000
    0.0000   -0.0000   -0.0000 N   0  0  0  0  0  0  0  0  0  0  0  0
   -1.2186    0.8905   -0.0000 C   0  0  0  0  0  0  0  0  0  0  0  0
    1.1951    0.8905   -0.0000 C   0  0  0  0  0  0  0  0  0  0  0  0
   -0.8905   -1.1951   -0.0000 C   0  0  0  0  0  0  0  0  0  0  0  0
    0.8671   -1.1951   -0.0000 C   0  0  0  0  0  0  0  0  0  0  0  0
   -0.7733    2.3200   -0.0000 C   0  0  0  0  0  0  0  0  0  0  0  0
    0.7265    2.3200   -0.0000 C   0  0  0  0  0  0  0  0  0  0  0  0
   -2.3903   -1.0311   -0.0000 C   0  0  0  0  0  0  0  0  0  0  0  0
   -3.2808   -2.2262   -0.0000 C   0  0  0  0  0  0  0  0  0  0  0  0
   -4.7806   -2.0622   -0.0000 C   0  0  0  0  0  0  0  0  0  0  0  0
   -5.6711   -3.2573   -0.0000 C   0  0  0  0  0  0  0  0  0  0  0  0
   -7.1709   -3.0933   -0.0000 N   0  0  0  0  0  0  0  0  0  0  0  0
   -8.6472   -3.3980   -0.0000 C   0  0  0  0  0  0  0  0  0  0  0  0
   -7.0302   -1.5935   -0.0000 C   0  0  0  0  0  0  0  0  0  0  0  0
   -6.8662   -4.5462   -0.0000 C   0  0  0  0  0  0  0  0  0  0  0  0
   -9.4088   -2.0856   -0.0000 C   0  0  0  0  0  0  0  0  0  0  0  0
   -8.4129   -0.9725   -0.0000 C   0  0  0  0  0  0  0  0  0  0  0  0
  1  2  1  0  0  0  0
  1  3  1  0  0  0  0
  1  4  1  0  0  0  0
  1  5  1  0  0  0  0
  2  6  1  0  0  0  0
  3  7  1  0  0  0  0
  4  8  1  0  0  0  0
  8  9  1  0  0  0  0
  9 10  1  0  0  0  0
 10 11  1  0  0  0  0
 11 12  1  0  0  0  0
 12 13  1  0  0  0  0
 12 14  1  0  0  0  0
 12 15  1  0  0  0  0
 13 16  1  0  0  0  0
 14 17  1  0  0  0  0
  6  7  1  0  0  0  0
 16 17  1  0  0  0  0
M  CHG  2   1   1  12   1
M  END
>  <GENERIC_NAME>
Pentolinium

>  <SYNONYMS>
Pentolinium tartrate; Pentolonium; Pentolonum

>  <cLogP>
-3.692

>  <cLogS>
-0.882

>  <H-Acceptors>
2

>  <H-Donors>
0

>  <Polar Surface Area>
0

>  <Druglikeness>
-3.8942

>  <Mutagenic>
none

>  <Tumorigenic>
none

>  <Reproductive Effective>
none

>  <Irritant>
none

>  <Nasty Functions>
quart. ammonium

>  <Symmetric atoms>
10

>  <Molecular Formula>
C15H32N2

>  <Total Molweight>
240.433

$$$$

Actelion Java MolfileCreator 1.0

  2  0  0  0  0  0  0  0  0  0999 V2000
    0.0000   -0.0000   -0.0000 Mg  0  0  0  0  0  0  0  0  0  0  0  0
   -4.0000    0.0312   -0.0000 O   0  0  0  0  0  0  0  0  0  0  0  0
M  CHG  2   1   2   2  -2
M  END
>  <GENERIC_NAME>
Magnesium oxide

>  <SYNONYMS>


>  <cLogP>
0

>  <cLogS>
-0.53

>  <H-Acceptors>
0

>  <H-Donors>
0

>  <Polar Surface Area>
0

>  <Druglikeness>
-1

>  <Mutagenic>
none

>  <Tumorigenic>
none

>  <Reproductive Effective>
none

>  <Irritant>
none

>  <Nasty Functions>


>  <Symmetric atoms>
0

>  <Molecular Formula>
Mg.O

>  <Total Molweight>
40.304

$$$$

Actelion Java MolfileCreator 1.0

 18 19  0  0  0  0  0  0  0  0999 V2000
    0.0000   -0.0000   -0.0000 Cl  0  0  0  0  0  0  0  0  0  0  0  0
    1.2910   -0.7344   -0.0000 C   0  0  0  0  0  0  0  0  0  0  0  0
    2.5821    0.0237   -0.0000 C   0  0  0  0  0  0  0  0  0  0  0  0
    1.2792   -2.2267   -0.0000 C   0  0  0  0  0  0  0  0  0  0  0  0
    3.8731   -0.7107   -0.0000 C   0  0  0  0  0  0  0  0  0  0  0  0
    2.5702    1.5398   -0.0000 C   0  0  0  0  0  0  0  0  0  0  0  0
    2.5702   -2.9611   -0.0000 C   0  0  0  0  0  0  0  0  0  0  0  0
    3.8613   -2.2031   -0.0000 C   0  0  0  0  0  0  0  0  0  0  0  0
    3.8613    2.2978   -0.0000 C   0  0  0  0  0  0  0  0  0  0  0  0
    1.2555    2.2978   -0.0000 C   0  0  0  0  0  0  0  0  0  0  0  0
    5.1523    1.5635   -0.0000 C   0  0  0  0  0  0  0  0  0  0  0  0
    3.8494    3.8139   -0.0000 C   0  0  0  0  0  0  0  0  0  0  0  0
    1.2437    3.8139   -0.0000 Cl  0  0  0  0  0  0  0  0  0  0  0  0
   -0.0592    1.5635   -0.0000 Cl  0  0  0  0  0  0  0  0  0  0  0  0
    6.4433    2.3215   -0.0000 C   0  0  0  0  0  0  0  0  0  0  0  0
    5.1405    4.5838   -0.0000 C   0  0  0  0  0  0  0  0  0  0  0  0
    6.4315    3.8376   -0.0000 C   0  0  0  0  0  0  0  0  0  0  0  0
    7.7225    4.6075   -0.0000 Cl  0  0  0  0  0  0  0  0  0  0  0  0
  1  2  1  0  0  0  0
  2  3  2  0  0  0  0
  2  4  1  0  0  0  0
  3  5  1  0  0  0  0
  6  3  1  1  0  0  0
  4  7  2  0  0  0  0
  5  8  2  0  0  0  0
  6  9  1  0  0  0  0
  6 10  1  0  0  0  0
  9 11  2  0  0  0  0
  9 12  1  0  0  0  0
 10 13  1  0  0  0  0
 10 14  1  0  0  0  0
 11 15  1  0  0  0  0
 12 16  2  0  0  0  0
 15 17  2  0  0  0  0
 17 18  1  0  0  0  0
  7  8  1  0  0  0  0
 16 17  1  0  0  0  0
M  END
>  <GENERIC_NAME>
Mitotane

>  <SYNONYMS>


>  <cLogP>
5.7902

>  <cLogS>
-5.438

>  <H-Acceptors>
0

>  <H-Donors>
0

>  <Polar Surface Area>
0

>  <Druglikeness>
-1.3066

>  <Mutagenic>
high

>  <Tumorigenic>
high

>  <Reproductive Effective>
high

>  <Irritant>
high

>  <Nasty Functions>


>  <Symmetric atoms>
3

>  <Molecular Formula>
C14H10Cl4

>  <Total Molweight>
320.045

$$$$

Actelion Java MolfileCreator 1.0

  6  5  0  0  0  0  0  0  0  0999 V2000
    0.0000   -0.0000   -0.0000 O   0  0  0  0  0  0  0  0  0  0  0  0
   -0.0118    1.5060   -0.0000 C   0  0  0  0  0  0  0  0  0  0  0  0
   -1.3178    2.2708   -0.0000 O   0  0  0  0  0  0  0  0  0  0  0  0
    1.2707    2.2708   -0.0000 C   0  0  0  0  0  0  0  0  0  0  0  0
    1.2589    3.7768   -0.0000 O   0  0  0  0  0  0  0  0  0  0  0  0
    2.5532    1.5295   -0.0000 C   0  0  0  0  0  0  0  0  0  0  0  0
  1  2  2  0  0  0  0
  2  3  1  0  0  0  0
  2  4  1  0  0  0  0
  4  5  2  0  0  0  0
  4  6  1  0  0  0  0
M  END
>  <GENERIC_NAME>
Pyruvic acid

>  <SYNONYMS>
2-Oxopropanoate; 2-Oxopropanoic acid; 2-Oxopropionic acid; a-Ketopropionic acid; Acetylformic acid; BTS; Pyroracemic acid; Pyruvate

>  <cLogP>
-0.8977

>  <cLogS>
-0.381

>  <H-Acceptors>
3

>  <H-Donors>
1

>  <Polar Surface Area>
54.37

>  <Druglikeness>
-4.84

>  <Mutagenic>
none

>  <Tumorigenic>
none

>  <Reproductive Effective>
none

>  <Irritant>
none

>  <Nasty Functions>


>  <Symmetric atoms>
0

>  <Molecular Formula>
C3H4O3

>  <Total Molweight>
88.0618

$$$$

Actelion Java MolfileCreator 1.0

  5  0  0  0  0  0  0  0  0  0999 V2000
    0.0000   -0.0000   -0.0000 Pt  0  0  0  0  0  0  0  0  0  0  0  0
    3.9375    4.0000   -0.0000 Cl  0  0  0  0  0  0  0  0  0  0  0  0
    3.9375    4.0000   -0.0000 Cl  0  0  0  0  0  0  0  0  0  0  0  0
   -4.0000   -3.9375   -0.0000 N   0  0  0  0  0  0  0  0  0  0  0  0
   -4.0000   -3.9375   -0.0000 N   0  0  0  0  0  0  0  0  0  0  0  0
M  CHG  5   1   4   2  -1   3  -1   4  -1   5  -1
M  END
>  <GENERIC_NAME>
Cisplatin

>  <SYNONYMS>
Cis-DDP; Cis-Diamminedichloroplatinum; Platinum Ammine Chloride; Trans-DDP

>  <cLogP>
0

>  <cLogS>
-0.53

>  <H-Acceptors>
0

>  <H-Donors>
0

>  <Polar Surface Area>
0

>  <Druglikeness>
-1

>  <Mutagenic>
none

>  <Tumorigenic>
none

>  <Reproductive Effective>
none

>  <Irritant>
none

>  <Nasty Functions>
unwanted atom

>  <Symmetric atoms>
0

>  <Molecular Formula>
Pt.Cl.Cl.H2N.H2N

>  <Total Molweight>
298.032

$$$$

Actelion Java MolfileCreator 1.0

 22 25  0  0  0  0  0  0  0  0999 V2000
    0.0000   -0.0000   -0.0000 O   0  0  0  0  0  0  0  0  0  0  0  0
    1.2647    0.7388   -0.0000 C   0  0  0  0  0  0  0  0  0  0  0  0
    2.6295   -0.0501   -0.0000 C   0  0  0  0  0  0  0  0  0  0  0  0
    1.2647    2.3415   -0.0000 C   0  0  0  0  0  0  0  0  0  0  0  0
    3.9944    0.7638   -0.0000 C   0  0  0  0  0  0  0  0  0  0  0  0
    2.6420    3.1304   -0.0000 C   0  0  0  0  0  0  0  0  0  0  0  0
    5.3091    0.0125   -0.0000 C   0  0  0  0  0  0  0  0  0  0  0  0
    3.9944    2.3040   -0.0000 C   0  0  0  0  0  0  0  0  0  0  0  0
    5.2966   -1.4400   -0.0000 C   0  0  0  0  0  0  0  0  0  0  0  0
    6.6113    0.8014   -0.0000 C   0  0  0  0  0  0  0  0  0  0  0  0
    5.3216    3.0552   -0.0000 C   0  0  0  0  0  0  0  0  0  0  0  0
    3.9944    3.7815   -0.0000 C   0  0  0  0  0  0  0  0  0  0  0  0
    6.5738    2.3415   -0.0000 C   0  0  0  0  0  0  0  0  0  0  0  0
    5.3091    4.5328   -0.0000 C   0  0  0  0  0  0  0  0  0  0  0  0
    7.8259    3.0928   -0.0000 C   0  0  0  0  0  0  0  0  0  0  0  0
    6.5613    5.2841   -0.0000 C   0  0  0  0  0  0  0  0  0  0  0  0
    7.8134    4.5703   -0.0000 C   0  0  0  0  0  0  0  0  0  0  0  0
    9.2033    2.6546   -0.0000 C   0  0  0  0  0  0  0  0  0  0  0  0
    9.1908    5.0336   -0.0000 C   0  0  0  0  0  0  0  0  0  0  0  0
    7.8009    6.0479   -0.0000 C   0  0  0  0  0  0  0  0  0  0  0  0
   10.0422    3.8441   -0.0000 C   0  0  0  0  0  0  0  0  0  0  0  0
    9.6290    6.4360   -0.0000 O   0  0  0  0  0  0  0  0  0  0  0  0
  1  2  2  0  0  0  0
  2  3  1  0  0  0  0
  2  4  1  0  0  0  0
  3  5  2  0  0  0  0
  4  6  2  0  0  0  0
  5  7  1  0  0  0  0
  5  8  1  0  0  0  0
  7  9  2  0  0  0  0
  7 10  1  0  0  0  0
  8 11  1  0  0  0  0
  8 12  1  1  0  0  0
 13 10  1  6  0  0  0
 11 14  1  1  0  0  0
 13 15  1  0  0  0  0
 14 16  1  0  0  0  0
 15 17  1  0  0  0  0
 15 18  1  1  0  0  0
 17 19  1  0  0  0  0
 17 20  1  1  0  0  0
 18 21  1  0  0  0  0
 19 22  2  0  0  0  0
  6  8  1  0  0  0  0
 11 13  1  0  0  0  0
 16 17  1  0  0  0  0
 19 21  1  0  0  0  0
M  END
>  <GENERIC_NAME>
Exemestane

>  <SYNONYMS>
Exemestano [INN-Spanish]; Exemestanum [INN-Latin]

>  <cLogP>
3.6076

>  <cLogS>
-3.947

>  <H-Acceptors>
2

>  <H-Donors>
0

>  <Polar Surface Area>
34.14

>  <Druglikeness>
-0.8784

>  <Mutagenic>
none

>  <Tumorigenic>
none

>  <Reproductive Effective>
none

>  <Irritant>
none

>  <Nasty Functions>


>  <Symmetric atoms>
0

>  <Molecular Formula>
C20H24O2

>  <Total Molweight>
296.409

$$$$

Actelion Java MolfileCreator 1.0

  7  7  0  0  0  0  0  0  0  0999 V2000
    0.0000   -0.0000   -0.0000 N   0  0  0  0  0  0  0  0  0  0  0  0
   -1.3036    0.7634   -0.0000 C   0  0  0  0  0  0  0  0  0  0  0  0
    1.2801    0.7634   -0.0000 C   0  0  0  0  0  0  0  0  0  0  0  0
   -1.3153    2.2666   -0.0000 C   0  0  0  0  0  0  0  0  0  0  0  0
    1.2683    2.2666   -0.0000 C   0  0  0  0  0  0  0  0  0  0  0  0
   -0.0352    3.0182   -0.0000 C   0  0  0  0  0  0  0  0  0  0  0  0
   -0.0470    4.5214   -0.0000 N   0  0  0  0  0  0  0  0  0  0  0  0
  1  2  2  0  0  0  0
  1  3  1  0  0  0  0
  2  4  1  0  0  0  0
  3  5  2  0  0  0  0
  4  6  2  0  0  0  0
  6  7  1  0  0  0  0
  5  6  1  0  0  0  0
M  END
>  <GENERIC_NAME>
Dalfampridine

>  <SYNONYMS>
4-Aminopyridine; 4-AP; EL-970; Fampridine; Fampridine-SR

>  <cLogP>
-0.0186

>  <cLogS>
-0.897

>  <H-Acceptors>
2

>  <H-Donors>
1

>  <Polar Surface Area>
38.91

>  <Druglikeness>
-1.9084

>  <Mutagenic>
none

>  <Tumorigenic>
none

>  <Reproductive Effective>
none

>  <Irritant>
none

>  <Nasty Functions>


>  <Symmetric atoms>
2

>  <Molecular Formula>
C5H6N2

>  <Total Molweight>
94.1166

$$$$

Actelion Java MolfileCreator 1.0

 16 15  0  0  0  0  0  0  0  0999 V2000
    0.0000   -0.0000   -0.0000 O   0  0  0  0  0  0  0  0  0  0  0  0
    1.2853    0.7549   -0.0000 C   0  0  0  0  0  0  0  0  0  0  0  0
   -1.3057    0.7549   -0.0000 C   0  0  0  0  0  0  0  0  0  0  0  0
    2.5707    0.0204   -0.0000 C   0  0  0  0  0  0  0  0  0  0  0  0
   -2.6115    0.0204   -0.0000 C   0  0  0  0  0  0  0  0  0  0  0  0
    3.8560    0.7753   -0.0000 O   0  0  0  0  0  0  0  0  0  0  0  0
   -3.9172    0.7753   -0.0000 C   0  0  0  0  0  0  0  0  0  0  0  0
   -5.2230    0.0408   -0.0000 C   0  0  0  0  0  0  0  0  0  0  0  0
   -6.5287    0.7957   -0.0000 C   0  0  0  0  0  0  0  0  0  0  0  0
   -7.8345    0.0612   -0.0000 C   0  0  0  0  0  0  0  0  0  0  0  0
   -9.1402    0.8161   -0.0000 C   0  0  0  0  0  0  0  0  0  0  0  0
  -10.4460    0.0816   -0.0000 C   0  0  0  0  0  0  0  0  0  0  0  0
  -11.7517    0.8365   -0.0000 C   0  0  0  0  0  0  0  0  0  0  0  0
  -13.0574    0.1020   -0.0000 C   0  0  0  0  0  0  0  0  0  0  0  0
  -14.3632    0.8569   -0.0000 C   0  0  0  0  0  0  0  0  0  0  0  0
  -15.6689    0.1224   -0.0000 C   0  0  0  0  0  0  0  0  0  0  0  0
  1  2  1  0  0  0  0
  1  3  1  0  0  0  0
  2  4  1  0  0  0  0
  3  5  1  0  0  0  0
  4  6  1  0  0  0  0
  5  7  1  0  0  0  0
  7  8  1  0  0  0  0
  8  9  1  0  0  0  0
  9 10  1  0  0  0  0
 10 11  1  0  0  0  0
 11 12  1  0  0  0  0
 12 13  1  0  0  0  0
 13 14  1  0  0  0  0
 14 15  1  0  0  0  0
 15 16  1  0  0  0  0
M  END
>  <GENERIC_NAME>
Polidocanol

>  <SYNONYMS>
Dodecylpolyethyleneglycolether; Hydroxyl polyethoxy dodecane; Laureth 9; Lauromacrogol; Macrogol lauryl ether; Oxypolyethoxydodecane; PEG-9 lauryl alcohol ; POE-9 lauryl alcohol; Polydocanol

>  <cLogP>
4.502

>  <cLogS>
-3.098

>  <H-Acceptors>
2

>  <H-Donors>
1

>  <Polar Surface Area>
29.46

>  <Druglikeness>
-27.895

>  <Mutagenic>
high

>  <Tumorigenic>
none

>  <Reproductive Effective>
none

>  <Irritant>
low

>  <Nasty Functions>


>  <Symmetric atoms>
0

>  <Molecular Formula>
C14H30O2

>  <Total Molweight>
230.39

$$$$

Actelion Java MolfileCreator 1.0

 10  9  0  0  0  0  0  0  0  0999 V2000
    0.0000   -0.0000   -0.0000 F   0  0  0  0  0  0  0  0  0  0  0  0
    1.2913    0.7582   -0.0000 C   0  0  0  0  0  0  0  0  0  0  0  0
    0.5331    2.0732   -0.0000 F   0  0  0  0  0  0  0  0  0  0  0  0
    2.0258   -0.5331   -0.0000 F   0  0  0  0  0  0  0  0  0  0  0  0
    2.5826    1.5164   -0.0000 C   0  0  0  0  0  0  0  0  0  0  0  0
    2.5708    3.0328   -0.0000 F   0  0  0  0  0  0  0  0  0  0  0  0
    3.8739    0.7819   -0.0000 O   0  0  0  0  0  0  0  0  0  0  0  0
    5.1653    1.5401   -0.0000 C   0  0  0  0  0  0  0  0  0  0  0  0
    6.4566    0.8056   -0.0000 F   0  0  0  0  0  0  0  0  0  0  0  0
    5.1534    3.0565   -0.0000 F   0  0  0  0  0  0  0  0  0  0  0  0
  1  2  1  0  0  0  0
  2  3  1  0  0  0  0
  2  4  1  0  0  0  0
  2  5  1  0  0  0  0
  5  6  1  6  0  0  0
  5  7  1  0  0  0  0
  7  8  1  0  0  0  0
  8  9  1  0  0  0  0
  8 10  1  0  0  0  0
M  END
>  <GENERIC_NAME>
Desflurane

>  <SYNONYMS>
Desflurano [INN-Spanish]; Desfluranum [INN-Latin]

>  <cLogP>
1.1955

>  <cLogS>
-2.345

>  <H-Acceptors>
1

>  <H-Donors>
0

>  <Polar Surface Area>
9.23

>  <Druglikeness>
-20.039

>  <Mutagenic>
none

>  <Tumorigenic>
none

>  <Reproductive Effective>
none

>  <Irritant>
high

>  <Nasty Functions>


>  <Symmetric atoms>
3

>  <Molecular Formula>
C3H2OF6

>  <Total Molweight>
168.036

$$$$

Actelion Java MolfileCreator 1.0

  9  6  0  0  0  0  0  0  0  0999 V2000
    0.0000   -0.0000   -0.0000 Si  0  0  0  0  0  0  0  0  0  0  0  0
    1.2942    0.7601   -0.0000 O   0  0  0  0  0  0  0  0  0  0  0  0
   -1.3148   -0.7395   -0.0000 O   0  0  0  0  0  0  0  0  0  0  0  0
   -1.3969   -3.6977   -0.0000 Al  0  0  0  0  0  0  0  0  0  0  0  0
   -2.7117   -4.4373   -0.0000 O   0  0  0  0  0  0  0  0  0  0  0  0
   -0.1027   -4.4373   -0.0000 O   0  0  0  0  0  0  0  0  0  0  0  0
    1.1915   -3.6772   -0.0000 Al  0  0  0  0  0  0  0  0  0  0  0  0
    2.4857   -4.4168   -0.0000 O   0  0  0  0  0  0  0  0  0  0  0  0
   -0.0822    3.8621   -0.0000 O   0  0  0  0  0  0  0  0  0  0  0  0
  1  2  2  0  0  0  0
  1  3  2  0  0  0  0
  4  5  2  0  0  0  0
  4  6  1  0  0  0  0
  6  7  1  0  0  0  0
  7  8  2  0  0  0  0
M  END
>  <GENERIC_NAME>
Bentoquatam

>  <SYNONYMS>


>  <cLogP>
0.6634

>  <cLogS>
-1.962

>  <H-Acceptors>
3

>  <H-Donors>
0

>  <Polar Surface Area>
43.37

>  <Druglikeness>
-4.466

>  <Mutagenic>
none

>  <Tumorigenic>
none

>  <Reproductive Effective>
high

>  <Irritant>
low

>  <Nasty Functions>
unwanted atom

>  <Symmetric atoms>
2

>  <Molecular Formula>
O2Si.O3Al2.H2O

>  <Total Molweight>
180.06

$$$$

Actelion Java MolfileCreator 1.0

 10 11  0  0  0  0  0  0  0  0999 V2000
    0.0000   -0.0000   -0.0000 N   0  0  0  0  0  0  0  0  0  0  0  0
   -1.3154   -0.7466   -0.0000 C   0  0  0  0  0  0  0  0  0  0  0  0
   -2.0738   -2.0382   -0.0000 C   0  0  0  0  0  0  0  0  0  0  0  0
   -2.8322   -0.7347   -0.0000 C   0  0  0  0  0  0  0  0  0  0  0  0
   -2.0856   -3.5313   -0.0000 C   0  0  0  0  0  0  0  0  0  0  0  0
   -0.7940   -4.2660   -0.0000 C   0  0  0  0  0  0  0  0  0  0  0  0
   -3.4010   -4.2660   -0.0000 C   0  0  0  0  0  0  0  0  0  0  0  0
   -0.8058   -5.7591   -0.0000 C   0  0  0  0  0  0  0  0  0  0  0  0
   -3.4128   -5.7591   -0.0000 C   0  0  0  0  0  0  0  0  0  0  0  0
   -2.1212   -6.4939   -0.0000 C   0  0  0  0  0  0  0  0  0  0  0  0
  2  1  1  6  0  0  0
  2  3  1  0  0  0  0
  2  4  1  0  0  0  0
  3  5  1  0  0  0  0
  5  6  2  0  0  0  0
  5  7  1  0  0  0  0
  6  8  1  0  0  0  0
  7  9  2  0  0  0  0
  8 10  2  0  0  0  0
  3  4  1  0  0  0  0
  9 10  1  0  0  0  0
M  END
>  <GENERIC_NAME>
Tranylcypromine

>  <SYNONYMS>


>  <cLogP>
1.5205

>  <cLogS>
-2.25

>  <H-Acceptors>
1

>  <H-Donors>
1

>  <Polar Surface Area>
26.02

>  <Druglikeness>
-0.5087

>  <Mutagenic>
none

>  <Tumorigenic>
none

>  <Reproductive Effective>
none

>  <Irritant>
none

>  <Nasty Functions>


>  <Symmetric atoms>
2

>  <Molecular Formula>
C9H11N

>  <Total Molweight>
133.193

$$$$

Actelion Java MolfileCreator 1.0

 18 19  0  0  0  0  0  0  0  0999 V2000
    0.0000   -0.0000   -0.0000 F   0  0  0  0  0  0  0  0  0  0  0  0
   -1.3110    0.7559   -0.0000 C   0  0  0  0  0  0  0  0  0  0  0  0
   -2.6220    0.0236   -0.0000 C   0  0  0  0  0  0  0  0  0  0  0  0
   -1.3228    2.2677   -0.0000 C   0  0  0  0  0  0  0  0  0  0  0  0
   -2.6338   -1.4645   -0.0000 C   0  0  0  0  0  0  0  0  0  0  0  0
   -3.9330    0.7795   -0.0000 C   0  0  0  0  0  0  0  0  0  0  0  0
   -2.6338    3.0236   -0.0000 C   0  0  0  0  0  0  0  0  0  0  0  0
   -3.9448   -2.1968   -0.0000 C   0  0  0  0  0  0  0  0  0  0  0  0
   -1.3464   -2.1968   -0.0000 C   0  0  0  0  0  0  0  0  0  0  0  0
   -3.9448    2.2913   -0.0000 C   0  0  0  0  0  0  0  0  0  0  0  0
   -2.6456    4.5353   -0.0000 F   0  0  0  0  0  0  0  0  0  0  0  0
   -3.9566   -3.6850   -0.0000 C   0  0  0  0  0  0  0  0  0  0  0  0
   -1.3582   -3.6850   -0.0000 C   0  0  0  0  0  0  0  0  0  0  0  0
   -2.6692   -4.4172   -0.0000 C   0  0  0  0  0  0  0  0  0  0  0  0
   -5.2676   -4.4172   -0.0000 C   0  0  0  0  0  0  0  0  0  0  0  0
   -2.6810   -5.9054   -0.0000 O   0  0  0  0  0  0  0  0  0  0  0  0
   -5.2794   -5.9054   -0.0000 O   0  0  0  0  0  0  0  0  0  0  0  0
   -6.5786   -3.6613   -0.0000 O   0  0  0  0  0  0  0  0  0  0  0  0
  1  2  1  0  0  0  0
  2  3  2  0  0  0  0
  2  4  1  0  0  0  0
  3  5  1  0  0  0  0
  3  6  1  0  0  0  0
  4  7  2  0  0  0  0
  5  8  2  0  0  0  0
  5  9  1  0  0  0  0
  6 10  2  0  0  0  0
  7 11  1  0  0  0  0
  8 12  1  0  0  0  0
  9 13  2  0  0  0  0
 12 14  2  0  0  0  0
 12 15  1  0  0  0  0
 14 16  1  0  0  0  0
 15 17  2  0  0  0  0
 15 18  1  0  0  0  0
  7 10  1  0  0  0  0
 13 14  1  0  0  0  0
M  END
>  <GENERIC_NAME>
Diflunisal

>  <SYNONYMS>


>  <cLogP>
2.6598

>  <cLogS>
-4.047

>  <H-Acceptors>
3

>  <H-Donors>
2

>  <Polar Surface Area>
57.53

>  <Druglikeness>
-3.1842

>  <Mutagenic>
high

>  <Tumorigenic>
none

>  <Reproductive Effective>
high

>  <Irritant>
none

>  <Nasty Functions>


>  <Symmetric atoms>
0

>  <Molecular Formula>
C13H8O3F2

>  <Total Molweight>
250.2

$$$$

Actelion Java MolfileCreator 1.0

 16 15  0  0  0  0  0  0  0  0999 V2000
    0.0000   -0.0000   -0.0000 S   0  0  0  0  0  0  0  0  0  0  0  0
   -0.0118    1.5054   -0.0000 C   0  0  0  0  0  0  0  0  0  0  0  0
   -1.3173    2.2699   -0.0000 S   0  0  0  0  0  0  0  0  0  0  0  0
    1.2702    2.2699   -0.0000 N   0  0  0  0  0  0  0  0  0  0  0  0
   -2.6228    1.5290   -0.0000 S   0  0  0  0  0  0  0  0  0  0  0  0
    1.2585    3.7754   -0.0000 C   0  0  0  0  0  0  0  0  0  0  0  0
    2.5522    1.5290   -0.0000 C   0  0  0  0  0  0  0  0  0  0  0  0
   -3.9283    2.2934   -0.0000 C   0  0  0  0  0  0  0  0  0  0  0  0
    2.5404    4.5398   -0.0000 C   0  0  0  0  0  0  0  0  0  0  0  0
    3.8342    2.2934   -0.0000 C   0  0  0  0  0  0  0  0  0  0  0  0
   -3.9400    3.7989   -0.0000 S   0  0  0  0  0  0  0  0  0  0  0  0
   -5.2338    1.5525   -0.0000 N   0  0  0  0  0  0  0  0  0  0  0  0
   -5.2455    0.0706   -0.0000 C   0  0  0  0  0  0  0  0  0  0  0  0
   -6.5392    2.3170   -0.0000 C   0  0  0  0  0  0  0  0  0  0  0  0
   -6.5510   -0.6704   -0.0000 C   0  0  0  0  0  0  0  0  0  0  0  0
   -7.8447    1.5760   -0.0000 C   0  0  0  0  0  0  0  0  0  0  0  0
  1  2  2  0  0  0  0
  2  3  1  0  0  0  0
  2  4  1  0  0  0  0
  3  5  1  0  0  0  0
  4  6  1  0  0  0  0
  4  7  1  0  0  0  0
  5  8  1  0  0  0  0
  6  9  1  0  0  0  0
  7 10  1  0  0  0  0
  8 11  2  0  0  0  0
  8 12  1  0  0  0  0
 12 13  1  0  0  0  0
 12 14  1  0  0  0  0
 13 15  1  0  0  0  0
 14 16  1  0  0  0  0
M  END
>  <GENERIC_NAME>
Disulfiram

>  <SYNONYMS>
Disulfuram; Disulphuram; Dupon 4472; Dupont Fungicide 4472; TATD; TETD; Tetraethylthioperoxydicarbonic Diamide; Tetraethylthiram Disulfide; Tetraethylthiram Disulphide; Tetraethylthiuram; Tetraethylthiuram Disulfide; Tetraethylthiuram Disulphide; Tetraeth<NL>lthiuram Sulfide; Tetraethylthiuran Disulfide; TTD; Usaf B-33

>  <cLogP>
3.343

>  <cLogS>
-3.266

>  <H-Acceptors>
2

>  <H-Donors>
0

>  <Polar Surface Area>
121.26

>  <Druglikeness>
0.97088

>  <Mutagenic>
high

>  <Tumorigenic>
high

>  <Reproductive Effective>
high

>  <Irritant>
high

>  <Nasty Functions>


>  <Symmetric atoms>
10

>  <Molecular Formula>
C10H20N2S4

>  <Total Molweight>
296.547

$$$$

Actelion Java MolfileCreator 1.0

 10 11  0  0  0  0  0  0  0  0999 V2000
    0.0000   -0.0000   -0.0000 N   0  0  0  0  0  0  0  0  0  0  0  0
    1.2981    0.7622   -0.0000 C   0  0  0  0  0  0  0  0  0  0  0  0
   -0.0119   -1.5005   -0.0000 C   0  0  0  0  0  0  0  0  0  0  0  0
    1.2862    2.2865   -0.0000 N   0  0  0  0  0  0  0  0  0  0  0  0
    2.5961    0.0238   -0.0000 C   0  0  0  0  0  0  0  0  0  0  0  0
    1.2862   -2.2389   -0.0000 N   0  0  0  0  0  0  0  0  0  0  0  0
    4.0133    0.5002   -0.0000 N   0  0  0  0  0  0  0  0  0  0  0  0
    2.5842   -1.4767   -0.0000 C   0  0  0  0  0  0  0  0  0  0  0  0
    4.8826   -0.7026   -0.0000 C   0  0  0  0  0  0  0  0  0  0  0  0
    4.0014   -1.9292   -0.0000 N   0  0  0  0  0  0  0  0  0  0  0  0
  1  2  2  0  0  0  0
  1  3  1  0  0  0  0
  2  4  1  0  0  0  0
  2  5  1  0  0  0  0
  3  6  2  0  0  0  0
  5  7  1  0  0  0  0
  5  8  2  0  0  0  0
  7  9  1  0  0  0  0
  8 10  1  0  0  0  0
  6  8  1  0  0  0  0
  9 10  2  0  0  0  0
M  END
>  <GENERIC_NAME>
Adenine

>  <SYNONYMS>
1H-Purin-6-amine; 6-Aminopurine; Adenin; Adeninimine; Vitamin B4

>  <cLogP>
-0.347

>  <cLogS>
-2.269

>  <H-Acceptors>
5

>  <H-Donors>
2

>  <Polar Surface Area>
80.48

>  <Druglikeness>
-2.1492e-2

>  <Mutagenic>
high

>  <Tumorigenic>
high

>  <Reproductive Effective>
high

>  <Irritant>
high

>  <Nasty Functions>
1,2-diamino-aryl

>  <Symmetric atoms>
0

>  <Molecular Formula>
C5H5N5

>  <Total Molweight>
135.13

$$$$

Actelion Java MolfileCreator 1.0

 13 15  0  0  0  0  0  0  0  0999 V2000
    0.0000   -0.0000   -0.0000 N   0  0  0  0  0  0  0  0  0  0  0  0
   -0.0124    1.5176   -0.0000 C   0  0  0  0  0  0  0  0  0  0  0  0
   -0.0249    3.1098   -0.0000 C   0  0  0  0  0  0  0  0  0  0  0  0
   -1.5051    1.4554   -0.0000 C   0  0  0  0  0  0  0  0  0  0  0  0
    1.3434    0.8085   -0.0000 C   0  0  0  0  0  0  0  0  0  0  0  0
    1.0076    4.3910   -0.0000 C   0  0  0  0  0  0  0  0  0  0  0  0
   -0.2488    2.2017   -0.0000 C   0  0  0  0  0  0  0  0  0  0  0  0
    2.2764    2.2017   -0.0000 C   0  0  0  0  0  0  0  0  0  0  0  0
   -0.2737    3.6696   -0.0000 C   0  0  0  0  0  0  0  0  0  0  0  0
    2.2639    3.6696   -0.0000 C   0  0  0  0  0  0  0  0  0  0  0  0
    0.9951    5.9086   -0.0000 C   0  0  0  0  0  0  0  0  0  0  0  0
    1.0076    1.7539   -0.0000 C   0  0  0  0  0  0  0  0  0  0  0  0
   -1.3310    3.2840   -0.0000 C   0  0  0  0  0  0  0  0  0  0  0  0
  1  2  1  0  0  0  0
  2  3  1  0  0  0  0
  2  4  1  0  0  0  0
  2  5  1  0  0  0  0
  3  6  1  0  0  0  0
  4  7  1  0  0  0  0
  5  8  1  0  0  0  0
  6  9  1  0  0  0  0
  6 10  1  0  0  0  0
  6 11  1  0  0  0  0
  7 12  1  0  0  0  0
  7 13  1  0  0  0  0
  7  9  1  0  0  0  0
  8 10  1  0  0  0  0
  8 12  1  0  0  0  0
M  END
>  <GENERIC_NAME>
Memantine

>  <SYNONYMS>
Memantina [INN-Spanish]; Memantine [INN]; Memantine HCL; Memantine Hydrochloride; Memantinum [INN-Latin]

>  <cLogP>
1.9846

>  <cLogS>
-2.942

>  <H-Acceptors>
1

>  <H-Donors>
1

>  <Polar Surface Area>
26.02

>  <Druglikeness>
-0.80275

>  <Mutagenic>
none

>  <Tumorigenic>
none

>  <Reproductive Effective>
none

>  <Irritant>
none

>  <Nasty Functions>


>  <Symmetric atoms>
4

>  <Molecular Formula>
C12H21N

>  <Total Molweight>
179.306

$$$$

Actelion Java MolfileCreator 1.0

  4  3  0  0  0  0  0  0  0  0999 V2000
    0.0000   -0.0000   -0.0000 O   0  0  0  0  0  0  0  0  0  0  0  0
   -0.0119   -1.4939   -0.0000 C   0  0  0  0  0  0  0  0  0  0  0  0
    1.2805   -2.2409   -0.0000 O   0  0  0  0  0  0  0  0  0  0  0  0
   -1.3279   -2.2409   -0.0000 C   0  0  0  0  0  0  0  0  0  0  0  0
  1  2  2  0  0  0  0
  2  3  1  0  0  0  0
  2  4  1  0  0  0  0
M  END
>  <GENERIC_NAME>
Acetic acid

>  <SYNONYMS>
Ethanoat; Ethanoate

>  <cLogP>
-0.2991

>  <cLogS>
-0.459

>  <H-Acceptors>
2

>  <H-Donors>
1

>  <Polar Surface Area>
37.3

>  <Druglikeness>
-2.2628

>  <Mutagenic>
high

>  <Tumorigenic>
none

>  <Reproductive Effective>
high

>  <Irritant>
high

>  <Nasty Functions>


>  <Symmetric atoms>
0

>  <Molecular Formula>
C2H4O2

>  <Total Molweight>
60.0518

$$$$

Actelion Java MolfileCreator 1.0

 17 19  0  0  0  0  0  0  0  0999 V2000
    0.0000   -0.0000   -0.0000 O   0  0  0  0  0  0  0  0  0  0  0  0
   -0.4748   -1.4243   -0.0000 C   0  0  0  0  0  0  0  0  0  0  0  0
   -1.9110   -1.8754   -0.0000 C   0  0  0  0  0  0  0  0  0  0  0  0
    0.3917   -2.6231   -0.0000 C   0  0  0  0  0  0  0  0  0  0  0  0
   -1.9228   -3.3709   -0.0000 C   0  0  0  0  0  0  0  0  0  0  0  0
   -3.2285   -1.1157   -0.0000 C   0  0  0  0  0  0  0  0  0  0  0  0
    1.8872   -2.6113   -0.0000 C   0  0  0  0  0  0  0  0  0  0  0  0
   -0.4985   -3.8220   -0.0000 C   0  0  0  0  0  0  0  0  0  0  0  0
   -3.2404   -4.1068   -0.0000 C   0  0  0  0  0  0  0  0  0  0  0  0
   -4.5460   -1.8516   -0.0000 C   0  0  0  0  0  0  0  0  0  0  0  0
    2.6231   -1.2938   -0.0000 C   0  0  0  0  0  0  0  0  0  0  0  0
    2.6231   -3.9050   -0.0000 C   0  0  0  0  0  0  0  0  0  0  0  0
   -0.0475   -5.2463   -0.0000 O   0  0  0  0  0  0  0  0  0  0  0  0
   -4.5579   -3.3472   -0.0000 C   0  0  0  0  0  0  0  0  0  0  0  0
    4.1187   -1.2819   -0.0000 C   0  0  0  0  0  0  0  0  0  0  0  0
    4.1187   -3.8932   -0.0000 C   0  0  0  0  0  0  0  0  0  0  0  0
    4.8546   -2.5757   -0.0000 C   0  0  0  0  0  0  0  0  0  0  0  0
  1  2  2  0  0  0  0
  2  3  1  0  0  0  0
  2  4  1  0  0  0  0
  3  5  2  0  0  0  0
  3  6  1  0  0  0  0
  4  7  1  0  0  0  0
  4  8  1  0  0  0  0
  5  9  1  0  0  0  0
  6 10  2  0  0  0  0
  7 11  2  0  0  0  0
  7 12  1  0  0  0  0
  8 13  2  0  0  0  0
  9 14  2  0  0  0  0
 11 15  1  0  0  0  0
 12 16  2  0  0  0  0
 15 17  2  0  0  0  0
  5  8  1  0  0  0  0
 10 14  1  0  0  0  0
 16 17  1  0  0  0  0
M  END
>  <GENERIC_NAME>
Phenindione

>  <SYNONYMS>


>  <cLogP>
3.1172

>  <cLogS>
-4.033

>  <H-Acceptors>
2

>  <H-Donors>
0

>  <Polar Surface Area>
34.14

>  <Druglikeness>
8.0991e-2

>  <Mutagenic>
none

>  <Tumorigenic>
none

>  <Reproductive Effective>
high

>  <Irritant>
none

>  <Nasty Functions>


>  <Symmetric atoms>
7

>  <Molecular Formula>
C15H10O2

>  <Total Molweight>
222.242

$$$$

Actelion Java MolfileCreator 1.0

 14 13  0  0  0  0  0  0  0  0999 V2000
    0.0000   -0.0000   -0.0000 N   0  0  0  0  0  0  0  0  0  0  0  0
   -1.3140   -0.7391   -0.0000 C   0  0  0  0  0  0  0  0  0  0  0  0
    1.2935   -0.7391   -0.0000 C   0  0  0  0  0  0  0  0  0  0  0  0
   -2.6280    0.0205   -0.0000 C   0  0  0  0  0  0  0  0  0  0  0  0
    2.5870    0.0205   -0.0000 C   0  0  0  0  0  0  0  0  0  0  0  0
   -3.9420   -0.7186   -0.0000 C   0  0  0  0  0  0  0  0  0  0  0  0
    3.8805   -0.7186   -0.0000 C   0  0  0  0  0  0  0  0  0  0  0  0
   -5.2561    0.0411   -0.0000 N   0  0  0  0  0  0  0  0  0  0  0  0
    5.1739    0.0411   -0.0000 C   0  0  0  0  0  0  0  0  0  0  0  0
    6.4674   -0.6981   -0.0000 N   0  0  0  0  0  0  0  0  0  0  0  0
    7.7609    0.0616   -0.0000 C   0  0  0  0  0  0  0  0  0  0  0  0
    9.0544   -0.6775   -0.0000 C   0  0  0  0  0  0  0  0  0  0  0  0
   10.3479    0.0821   -0.0000 C   0  0  0  0  0  0  0  0  0  0  0  0
   11.6414   -0.6570   -0.0000 N   0  0  0  0  0  0  0  0  0  0  0  0
  1  2  1  0  0  0  0
  1  3  1  0  0  0  0
  2  4  1  0  0  0  0
  3  5  1  0  0  0  0
  4  6  1  0  0  0  0
  5  7  1  0  0  0  0
  6  8  1  0  0  0  0
  7  9  1  0  0  0  0
  9 10  1  0  0  0  0
 10 11  1  0  0  0  0
 11 12  1  0  0  0  0
 12 13  1  0  0  0  0
 13 14  1  0  0  0  0
M  END
>  <GENERIC_NAME>
Spermine

>  <SYNONYMS>
1, 4-Bis(aminopropyl)butanediamine; 4,9-Diaza-1,12-dodecanediamine; 4,9-Diazadodecane-1,12-diamine; Spermin; Spermine dihydrate

>  <cLogP>
-0.9876

>  <cLogS>
-0.772

>  <H-Acceptors>
4

>  <H-Donors>
4

>  <Polar Surface Area>
76.1

>  <Druglikeness>
-5.3518

>  <Mutagenic>
high

>  <Tumorigenic>
none

>  <Reproductive Effective>
none

>  <Irritant>
none

>  <Nasty Functions>


>  <Symmetric atoms>
7

>  <Molecular Formula>
C10H26N4

>  <Total Molweight>
202.344

$$$$

Actelion Java MolfileCreator 1.0

 13 14  0  0  0  0  0  0  0  0999 V2000
    0.0000   -0.0000   -0.0000 Cl  0  0  0  0  0  0  0  0  0  0  0  0
    1.2752    0.7530   -0.0000 C   0  0  0  0  0  0  0  0  0  0  0  0
    2.5504    0.0243   -0.0000 C   0  0  0  0  0  0  0  0  0  0  0  0
    1.2631    2.2468   -0.0000 C   0  0  0  0  0  0  0  0  0  0  0  0
    2.5383   -1.4452   -0.0000 O   0  0  0  0  0  0  0  0  0  0  0  0
    3.8256    0.7773   -0.0000 C   0  0  0  0  0  0  0  0  0  0  0  0
    2.5383    2.9998   -0.0000 C   0  0  0  0  0  0  0  0  0  0  0  0
    5.1373   -0.0000   -0.0000 N   0  0  0  0  0  0  0  0  0  0  0  0
    3.8135    2.2711   -0.0000 C   0  0  0  0  0  0  0  0  0  0  0  0
    2.5261    4.4936   -0.0000 Cl  0  0  0  0  0  0  0  0  0  0  0  0
    6.4611    0.7773   -0.0000 C   0  0  0  0  0  0  0  0  0  0  0  0
    5.1251    3.0727   -0.0000 C   0  0  0  0  0  0  0  0  0  0  0  0
    6.4489    2.3318   -0.0000 C   0  0  0  0  0  0  0  0  0  0  0  0
  1  2  1  0  0  0  0
  2  3  2  0  0  0  0
  2  4  1  0  0  0  0
  3  5  1  0  0  0  0
  3  6  1  0  0  0  0
  4  7  2  0  0  0  0
  6  8  2  0  0  0  0
  6  9  1  0  0  0  0
  7 10  1  0  0  0  0
  8 11  1  0  0  0  0
  9 12  2  0  0  0  0
 11 13  2  0  0  0  0
  7  9  1  0  0  0  0
 12 13  1  0  0  0  0
M  END
>  <GENERIC_NAME>
Chloroxine

>  <SYNONYMS>
Chloroxyquinoline; Chlorquinol; Dichlorohydroxyquinoline; Dichloroquinolinol; Dichloroxin; Dikhloroskin

>  <cLogP>
2.8419

>  <cLogS>
-3.498

>  <H-Acceptors>
2

>  <H-Donors>
1

>  <Polar Surface Area>
33.12

>  <Druglikeness>
-1.709

>  <Mutagenic>
high

>  <Tumorigenic>
high

>  <Reproductive Effective>
high

>  <Irritant>
none

>  <Nasty Functions>


>  <Symmetric atoms>
0

>  <Molecular Formula>
C9H5NOCl2

>  <Total Molweight>
214.051

$$$$

Actelion Java MolfileCreator 1.0

  6  4  0  0  0  0  0  0  0  0999 V2000
    0.0000   -0.0000   -0.0000 S   0  0  0  0  0  0  0  0  0  0  0  0
    1.4881    0.0118   -0.0000 O   0  0  0  0  0  0  0  0  0  0  0  0
   -1.5118    0.0118   -0.0000 O   0  0  0  0  0  0  0  0  0  0  0  0
   -0.0118    1.5118   -0.0000 O   0  0  0  0  0  0  0  0  0  0  0  0
   -0.0118   -1.4881   -0.0000 O   0  0  0  0  0  0  0  0  0  0  0  0
   -4.3463    0.0945   -0.0000 Mg  0  0  0  0  0  0  0  0  0  0  0  0
  1  2  2  0  0  0  0
  1  3  2  0  0  0  0
  1  4  1  0  0  0  0
  1  5  1  0  0  0  0
M  CHG  3   4  -1   5  -1   6   2
M  END
>  <GENERIC_NAME>
Magnesium Sulfate

>  <SYNONYMS>
Bitter salt; Magnesium sulfate anhydrous; Magnesium sulfate dried; Magnesium sulfate heptahydrate; Magnesium sulphate; Magnesium Sulphate Hydrate

>  <cLogP>
-3.4103

>  <cLogS>
1.524

>  <H-Acceptors>
4

>  <H-Donors>
2

>  <Polar Surface Area>
82.98

>  <Druglikeness>
-2.0209

>  <Mutagenic>
high

>  <Tumorigenic>
high

>  <Reproductive Effective>
high

>  <Irritant>
high

>  <Nasty Functions>


>  <Symmetric atoms>
2

>  <Molecular Formula>
O4S.Mg

>  <Total Molweight>
120.367

$$$$

Actelion Java MolfileCreator 1.0

 24 26  0  0  0  0  0  0  0  0999 V2000
    0.0000   -0.0000   -0.0000 N   0  0  0  0  0  0  0  0  0  0  0  0
    1.2759    0.7491   -0.0000 C   0  0  0  0  0  0  0  0  0  0  0  0
   -0.0117   -1.4749   -0.0000 C   0  0  0  0  0  0  0  0  0  0  0  0
   -1.2993    0.7491   -0.0000 C   0  0  0  0  0  0  0  0  0  0  0  0
    1.2642    2.2474   -0.0000 C   0  0  0  0  0  0  0  0  0  0  0  0
   -1.3110   -2.2006   -0.0000 C   0  0  0  0  0  0  0  0  0  0  0  0
    2.5400    2.9965   -0.0000 C   0  0  0  0  0  0  0  0  0  0  0  0
   -0.0351    2.9965   -0.0000 C   0  0  0  0  0  0  0  0  0  0  0  0
   -1.3227   -3.6755   -0.0000 C   0  0  0  0  0  0  0  0  0  0  0  0
   -2.6103   -1.4515   -0.0000 C   0  0  0  0  0  0  0  0  0  0  0  0
    2.5283    4.4948   -0.0000 C   0  0  0  0  0  0  0  0  0  0  0  0
    3.8627    2.2123   -0.0000 C   0  0  0  0  0  0  0  0  0  0  0  0
   -0.0468    4.4948   -0.0000 C   0  0  0  0  0  0  0  0  0  0  0  0
   -2.6220   -4.4012   -0.0000 C   0  0  0  0  0  0  0  0  0  0  0  0
   -3.9096   -2.1772   -0.0000 C   0  0  0  0  0  0  0  0  0  0  0  0
    1.2291    5.2440   -0.0000 C   0  0  0  0  0  0  0  0  0  0  0  0
    3.8510    5.3025   -0.0000 C   0  0  0  0  0  0  0  0  0  0  0  0
    5.1971    2.9848   -0.0000 C   0  0  0  0  0  0  0  0  0  0  0  0
   -3.9213   -3.6520   -0.0000 C   0  0  0  0  0  0  0  0  0  0  0  0
    5.1854    4.5533   -0.0000 C   0  0  0  0  0  0  0  0  0  0  0  0
   -5.2205   -4.3778   -0.0000 C   0  0  0  0  0  0  0  0  0  0  0  0
   -6.5198   -5.1152   -0.0000 C   0  0  0  0  0  0  0  0  0  0  0  0
   -4.4948   -5.6536   -0.0000 C   0  0  0  0  0  0  0  0  0  0  0  0
   -5.9697   -3.0785   -0.0000 C   0  0  0  0  0  0  0  0  0  0  0  0
  1  2  1  0  0  0  0
  1  3  1  0  0  0  0
  1  4  1  0  0  0  0
  2  5  1  0  0  0  0
  3  6  1  0  0  0  0
  5  7  1  0  0  0  0
  5  8  2  0  0  0  0
  6  9  2  0  0  0  0
  6 10  1  0  0  0  0
  7 11  2  0  0  0  0
  7 12  1  0  0  0  0
  8 13  1  0  0  0  0
  9 14  1  0  0  0  0
 10 15  2  0  0  0  0
 11 16  1  0  0  0  0
 11 17  1  0  0  0  0
 12 18  2  0  0  0  0
 14 19  2  0  0  0  0
 17 20  2  0  0  0  0
 19 21  1  0  0  0  0
 21 22  1  0  0  0  0
 21 23  1  0  0  0  0
 21 24  1  0  0  0  0
 13 16  2  0  0  0  0
 15 19  1  0  0  0  0
 18 20  1  0  0  0  0
M  END
>  <GENERIC_NAME>
Butenafine

>  <SYNONYMS>
Butenafina [INN-Spanish]; Butenafine [INN]; Butenafine HCL; Butenafine hydrochloride; Butenafinum [INN-Latin]

>  <cLogP>
5.4769

>  <cLogS>
-5.219

>  <H-Acceptors>
1

>  <H-Donors>
0

>  <Polar Surface Area>
3.24

>  <Druglikeness>
0.23984

>  <Mutagenic>
none

>  <Tumorigenic>
high

>  <Reproductive Effective>
none

>  <Irritant>
none

>  <Nasty Functions>


>  <Symmetric atoms>
4

>  <Molecular Formula>
C23H27N

>  <Total Molweight>
317.474

$$$$

Actelion Java MolfileCreator 1.0

 23 26  0  0  0  0  0  0  0  0999 V2000
    0.0000   -0.0000   -0.0000 O   0  0  0  0  0  0  0  0  0  0  0  0
    1.2650    0.7390   -0.0000 C   0  0  0  0  0  0  0  0  0  0  0  0
    2.6302   -0.0501   -0.0000 C   0  0  0  0  0  0  0  0  0  0  0  0
    1.2650    2.3421   -0.0000 C   0  0  0  0  0  0  0  0  0  0  0  0
    3.9954    0.7640   -0.0000 C   0  0  0  0  0  0  0  0  0  0  0  0
    2.6427    3.1312   -0.0000 C   0  0  0  0  0  0  0  0  0  0  0  0
    5.3105    0.0125   -0.0000 C   0  0  0  0  0  0  0  0  0  0  0  0
    3.9954    2.3046   -0.0000 C   0  0  0  0  0  0  0  0  0  0  0  0
    6.6131    0.8016   -0.0000 C   0  0  0  0  0  0  0  0  0  0  0  0
    5.3231    3.0561   -0.0000 C   0  0  0  0  0  0  0  0  0  0  0  0
    3.9954    3.7825   -0.0000 C   0  0  0  0  0  0  0  0  0  0  0  0
    6.5755    2.3421   -0.0000 C   0  0  0  0  0  0  0  0  0  0  0  0
    5.3105    4.5340   -0.0000 C   0  0  0  0  0  0  0  0  0  0  0  0
    7.8280    3.0936   -0.0000 C   0  0  0  0  0  0  0  0  0  0  0  0
    6.5630    5.2855   -0.0000 C   0  0  0  0  0  0  0  0  0  0  0  0
    7.8155    4.5716   -0.0000 C   0  0  0  0  0  0  0  0  0  0  0  0
    9.2058    2.6553   -0.0000 C   0  0  0  0  0  0  0  0  0  0  0  0
    9.1932    5.0350   -0.0000 C   0  0  0  0  0  0  0  0  0  0  0  0
    7.8030    6.0495   -0.0000 C   0  0  0  0  0  0  0  0  0  0  0  0
   10.0449    3.8451   -0.0000 C   0  0  0  0  0  0  0  0  0  0  0  0
    9.6316    6.4378   -0.0000 C   0  0  0  0  0  0  0  0  0  0  0  0
    8.6421    7.5400   -0.0000 O   0  0  0  0  0  0  0  0  0  0  0  0
   11.0594    6.7509   -0.0000 C   0  0  0  0  0  0  0  0  0  0  0  0
  1  2  2  0  0  0  0
  2  3  1  0  0  0  0
  2  4  1  0  0  0  0
  3  5  2  0  0  0  0
  4  6  1  0  0  0  0
  5  7  1  0  0  0  0
  5  8  1  0  0  0  0
  7  9  2  0  0  0  0
  8 10  1  0  0  0  0
  8 11  1  6  0  0  0
 12  9  1  6  0  0  0
 10 13  1  6  0  0  0
 12 14  1  0  0  0  0
 13 15  1  0  0  0  0
 14 16  1  0  0  0  0
 14 17  1  1  0  0  0
 16 18  1  0  0  0  0
 16 19  1  1  0  0  0
 17 20  1  0  0  0  0
 18 21  1  1  0  0  0
 21 22  2  0  0  0  0
 21 23  1  0  0  0  0
  6  8  1  0  0  0  0
 10 12  1  0  0  0  0
 15 16  1  0  0  0  0
 18 20  1  0  0  0  0
M  END
>  <GENERIC_NAME>
Dydrogesterone

>  <SYNONYMS>
10alpha-Isopregnenone; Didrogesterone [DCIT]; Dydrogesterona [INN-Spanish]; Dydrogesteronum [INN-Latin]; Hydrogesterone; Hydrogestrone; Isopregnenone

>  <cLogP>
3.7436

>  <cLogS>
-4.314

>  <H-Acceptors>
2

>  <H-Donors>
0

>  <Polar Surface Area>
34.14

>  <Druglikeness>
0.82654

>  <Mutagenic>
none

>  <Tumorigenic>
none

>  <Reproductive Effective>
high

>  <Irritant>
none

>  <Nasty Functions>


>  <Symmetric atoms>
0

>  <Molecular Formula>
C21H28O2

>  <Total Molweight>
312.451

$$$$

Actelion Java MolfileCreator 1.0

  9  8  0  0  0  0  0  0  0  0999 V2000
    0.0000   -0.0000   -0.0000 N   0  0  0  0  0  0  0  0  0  0  0  0
   -0.0118    1.5100   -0.0000 C   0  0  0  0  0  0  0  0  0  0  0  0
    1.2741    2.2650   -0.0000 N   0  0  0  0  0  0  0  0  0  0  0  0
   -1.3213    2.2650   -0.0000 N   0  0  0  0  0  0  0  0  0  0  0  0
    1.2623    3.7750   -0.0000 C   0  0  0  0  0  0  0  0  0  0  0  0
    2.5599    1.5336   -0.0000 C   0  0  0  0  0  0  0  0  0  0  0  0
   -2.6307    1.5336   -0.0000 C   0  0  0  0  0  0  0  0  0  0  0  0
   -2.6425    0.0472   -0.0000 N   0  0  0  0  0  0  0  0  0  0  0  0
   -3.9402    2.2886   -0.0000 N   0  0  0  0  0  0  0  0  0  0  0  0
  1  2  2  0  0  0  0
  2  3  1  0  0  0  0
  2  4  1  0  0  0  0
  3  5  1  0  0  0  0
  3  6  1  0  0  0  0
  4  7  1  0  0  0  0
  7  8  2  0  0  0  0
  7  9  1  0  0  0  0
M  END
>  <GENERIC_NAME>
Metformin

>  <SYNONYMS>


>  <cLogP>
-1.7137

>  <cLogS>
0.827

>  <H-Acceptors>
5

>  <H-Donors>
4

>  <Polar Surface Area>
88.99

>  <Druglikeness>
3.5915

>  <Mutagenic>
high

>  <Tumorigenic>
none

>  <Reproductive Effective>
high

>  <Irritant>
none

>  <Nasty Functions>


>  <Symmetric atoms>
1

>  <Molecular Formula>
C4H11N5

>  <Total Molweight>
129.166

$$$$

Actelion Java MolfileCreator 1.0

 23 22  0  0  0  0  0  0  0  0999 V2000
    0.0000   -0.0000   -0.0000 O   0  0  0  0  0  0  0  0  0  0  0  0
    1.2979    0.7622   -0.0000 C   0  0  0  0  0  0  0  0  0  0  0  0
    2.5958    0.0206   -0.0000 C   0  0  0  0  0  0  0  0  0  0  0  0
    3.8936    0.7828   -0.0000 C   0  0  0  0  0  0  0  0  0  0  0  0
    5.1915    0.0412   -0.0000 C   0  0  0  0  0  0  0  0  0  0  0  0
    6.4894    0.8035   -0.0000 C   0  0  0  0  0  0  0  0  0  0  0  0
    7.7873    0.0618   -0.0000 C   0  0  0  0  0  0  0  0  0  0  0  0
    9.0852    0.8241   -0.0000 C   0  0  0  0  0  0  0  0  0  0  0  0
   10.3831    0.0824   -0.0000 C   0  0  0  0  0  0  0  0  0  0  0  0
   11.6809    0.8447   -0.0000 C   0  0  0  0  0  0  0  0  0  0  0  0
   12.9788    0.1030   -0.0000 C   0  0  0  0  0  0  0  0  0  0  0  0
   14.2767    0.8653   -0.0000 C   0  0  0  0  0  0  0  0  0  0  0  0
   15.5746    0.1236   -0.0000 C   0  0  0  0  0  0  0  0  0  0  0  0
   16.8725    0.8859   -0.0000 C   0  0  0  0  0  0  0  0  0  0  0  0
   18.1703    0.1442   -0.0000 C   0  0  0  0  0  0  0  0  0  0  0  0
   19.4682    0.9065   -0.0000 C   0  0  0  0  0  0  0  0  0  0  0  0
   20.7661    0.1648   -0.0000 C   0  0  0  0  0  0  0  0  0  0  0  0
   22.0640    0.9271   -0.0000 C   0  0  0  0  0  0  0  0  0  0  0  0
   23.3619    0.1854   -0.0000 C   0  0  0  0  0  0  0  0  0  0  0  0
   24.6597    0.9477   -0.0000 C   0  0  0  0  0  0  0  0  0  0  0  0
   25.9576    0.2060   -0.0000 C   0  0  0  0  0  0  0  0  0  0  0  0
   27.2555    0.9683   -0.0000 C   0  0  0  0  0  0  0  0  0  0  0  0
   28.5534    0.2266   -0.0000 C   0  0  0  0  0  0  0  0  0  0  0  0
  1  2  1  0  0  0  0
  2  3  1  0  0  0  0
  3  4  1  0  0  0  0
  4  5  1  0  0  0  0
  5  6  1  0  0  0  0
  6  7  1  0  0  0  0
  7  8  1  0  0  0  0
  8  9  1  0  0  0  0
  9 10  1  0  0  0  0
 10 11  1  0  0  0  0
 11 12  1  0  0  0  0
 12 13  1  0  0  0  0
 13 14  1  0  0  0  0
 14 15  1  0  0  0  0
 15 16  1  0  0  0  0
 16 17  1  0  0  0  0
 17 18  1  0  0  0  0
 18 19  1  0  0  0  0
 19 20  1  0  0  0  0
 20 21  1  0  0  0  0
 21 22  1  0  0  0  0
 22 23  1  0  0  0  0
M  END
>  <GENERIC_NAME>
Docosanol

>  <SYNONYMS>
Behenyl alcohol

>  <cLogP>
9.1385

>  <cLogS>
-5.877

>  <H-Acceptors>
1

>  <H-Donors>
1

>  <Polar Surface Area>
20.23

>  <Druglikeness>
-32.166

>  <Mutagenic>
none

>  <Tumorigenic>
none

>  <Reproductive Effective>
none

>  <Irritant>
high

>  <Nasty Functions>


>  <Symmetric atoms>
0

>  <Molecular Formula>
C22H46O

>  <Total Molweight>
326.606

$$$$

Actelion Java MolfileCreator 1.0

 17 18  0  0  0  0  0  0  0  0999 V2000
    0.0000   -0.0000   -0.0000 S   0  0  0  0  0  0  0  0  0  0  0  0
   -1.5117    0.0118   -0.0000 O   0  0  0  0  0  0  0  0  0  0  0  0
    1.4881    0.0118   -0.0000 O   0  0  0  0  0  0  0  0  0  0  0  0
   -0.0118   -1.4881   -0.0000 C   0  0  0  0  0  0  0  0  0  0  0  0
   -0.0118    1.5117   -0.0000 C   0  0  0  0  0  0  0  0  0  0  0  0
   -1.3227   -2.2203   -0.0000 C   0  0  0  0  0  0  0  0  0  0  0  0
    1.2755   -2.2203   -0.0000 C   0  0  0  0  0  0  0  0  0  0  0  0
    1.2755    2.2675   -0.0000 C   0  0  0  0  0  0  0  0  0  0  0  0
   -1.3227    2.2675   -0.0000 C   0  0  0  0  0  0  0  0  0  0  0  0
   -1.3345   -3.7084   -0.0000 C   0  0  0  0  0  0  0  0  0  0  0  0
    1.2637   -3.7084   -0.0000 C   0  0  0  0  0  0  0  0  0  0  0  0
    1.2637    3.7792   -0.0000 C   0  0  0  0  0  0  0  0  0  0  0  0
   -1.3345    3.7792   -0.0000 C   0  0  0  0  0  0  0  0  0  0  0  0
   -0.0472   -4.4524   -0.0000 C   0  0  0  0  0  0  0  0  0  0  0  0
   -0.0472    4.5469   -0.0000 C   0  0  0  0  0  0  0  0  0  0  0  0
   -0.0591   -5.9405   -0.0000 N   0  0  0  0  0  0  0  0  0  0  0  0
   -0.0591    6.0586   -0.0000 N   0  0  0  0  0  0  0  0  0  0  0  0
  1  2  2  0  0  0  0
  1  3  2  0  0  0  0
  1  4  1  0  0  0  0
  1  5  1  0  0  0  0
  4  6  2  0  0  0  0
  4  7  1  0  0  0  0
  5  8  2  0  0  0  0
  5  9  1  0  0  0  0
  6 10  1  0  0  0  0
  7 11  2  0  0  0  0
  8 12  1  0  0  0  0
  9 13  2  0  0  0  0
 10 14  2  0  0  0  0
 12 15  2  0  0  0  0
 14 16  1  0  0  0  0
 15 17  1  0  0  0  0
 11 14  1  0  0  0  0
 13 15  1  0  0  0  0
M  END
>  <GENERIC_NAME>
Dapsone

>  <SYNONYMS>
1,1'-Sulfonylbis[4-aminobenzene]; 4,4'-Diaminodiphenyl sulfone; 4,4'-Diaminodiphenyl sulphone; 4,4'-Diaminodiphenylsulfone; 4,4'-Sulfonylbisbenzeneamine; 4,4'-Sulfonyldianilin; 4,4'-sulfonyldianiline; DDS, pharmaceutical

>  <cLogP>
1.0102

>  <cLogS>
-3.304

>  <H-Acceptors>
4

>  <H-Donors>
2

>  <Polar Surface Area>
94.56

>  <Druglikeness>
0.83748

>  <Mutagenic>
high

>  <Tumorigenic>
high

>  <Reproductive Effective>
high

>  <Irritant>
none

>  <Nasty Functions>


>  <Symmetric atoms>
10

>  <Molecular Formula>
C12H12N2O2S

>  <Total Molweight>
248.305

$$$$

Actelion Java MolfileCreator 1.0

 12 11  0  0  0  0  0  0  0  0999 V2000
    0.0000   -0.0000   -0.0000 F   0  0  0  0  0  0  0  0  0  0  0  0
    1.2941   -0.7361   -0.0000 C   0  0  0  0  0  0  0  0  0  0  0  0
    0.5342   -2.0301   -0.0000 F   0  0  0  0  0  0  0  0  0  0  0  0
    2.0301    0.5817   -0.0000 F   0  0  0  0  0  0  0  0  0  0  0  0
    2.5881   -1.4721   -0.0000 C   0  0  0  0  0  0  0  0  0  0  0  0
    2.5762   -2.9680   -0.0000 O   0  0  0  0  0  0  0  0  0  0  0  0
    3.8822   -0.7123   -0.0000 C   0  0  0  0  0  0  0  0  0  0  0  0
    1.2584   -3.7041   -0.0000 C   0  0  0  0  0  0  0  0  0  0  0  0
    5.1762    0.0475   -0.0000 F   0  0  0  0  0  0  0  0  0  0  0  0
    4.6182   -2.0064   -0.0000 F   0  0  0  0  0  0  0  0  0  0  0  0
    3.1223    0.6055   -0.0000 F   0  0  0  0  0  0  0  0  0  0  0  0
    1.2466   -5.2000   -0.0000 F   0  0  0  0  0  0  0  0  0  0  0  0
  1  2  1  0  0  0  0
  2  3  1  0  0  0  0
  2  4  1  0  0  0  0
  2  5  1  0  0  0  0
  5  6  1  0  0  0  0
  5  7  1  0  0  0  0
  6  8  1  0  0  0  0
  7  9  1  0  0  0  0
  7 10  1  0  0  0  0
  7 11  1  0  0  0  0
  8 12  1  0  0  0  0
M  END
>  <GENERIC_NAME>
Sevoflurane

>  <SYNONYMS>
Sevofluran; Sevoflurano [INN-Spanish]; Sevofluranum [INN-Latin]

>  <cLogP>
2.0064

>  <cLogS>
-3.367

>  <H-Acceptors>
1

>  <H-Donors>
0

>  <Polar Surface Area>
9.23

>  <Druglikeness>
-12.68

>  <Mutagenic>
high

>  <Tumorigenic>
none

>  <Reproductive Effective>
high

>  <Irritant>
none

>  <Nasty Functions>


>  <Symmetric atoms>
6

>  <Molecular Formula>
C4H3OF7

>  <Total Molweight>
200.053

$$$$

Actelion Java MolfileCreator 1.0

  5  3  0  0  0  0  0  0  0  0999 V2000
    0.0000   -0.0000   -0.0000 Na  0  0  0  0  0  0  0  0  0  0  0  0
   -2.6351   -1.4116   -0.0000 O   0  0  0  0  0  0  0  0  0  0  0  0
   -2.6468    0.0941   -0.0000 C   0  0  0  0  0  0  0  0  0  0  0  0
   -3.9526    0.8470   -0.0000 O   0  0  0  0  0  0  0  0  0  0  0  0
   -1.3646    0.8470   -0.0000 O   0  0  0  0  0  0  0  0  0  0  0  0
  2  3  2  0  0  0  0
  3  4  1  0  0  0  0
  3  5  1  0  0  0  0
M  CHG  2   1   1   5  -1
M  END
>  <GENERIC_NAME>
Sodium bicarbonate

>  <SYNONYMS>
Bicarbonate of soda; Carbonic acid monosodium salt; Sodium acid carbonate; Sodium hydrocarbonate; Sodium hydrogen carbonate; Sodium hydrogencarbonate

>  <cLogP>
-0.5238

>  <cLogS>
-0.646

>  <H-Acceptors>
3

>  <H-Donors>
2

>  <Polar Surface Area>
57.53

>  <Druglikeness>
-2.521

>  <Mutagenic>
none

>  <Tumorigenic>
high

>  <Reproductive Effective>
none

>  <Irritant>
none

>  <Nasty Functions>


>  <Symmetric atoms>
1

>  <Molecular Formula>
Na.CHO3

>  <Total Molweight>
84.0059

$$$$

Actelion Java MolfileCreator 1.0

 16 17  0  0  0  0  0  0  0  0999 V2000
    0.0000   -0.0000   -0.0000 Cl  0  0  0  0  0  0  0  0  0  0  0  0
   -1.3099    0.7553   -0.0000 C   0  0  0  0  0  0  0  0  0  0  0  0
   -1.3217    2.2658   -0.0000 C   0  0  0  0  0  0  0  0  0  0  0  0
   -2.6199    0.0236   -0.0000 C   0  0  0  0  0  0  0  0  0  0  0  0
   -0.0354    3.0329   -0.0000 Cl  0  0  0  0  0  0  0  0  0  0  0  0
   -2.6317    3.0329   -0.0000 C   0  0  0  0  0  0  0  0  0  0  0  0
   -2.6317   -1.4634   -0.0000 C   0  0  0  0  0  0  0  0  0  0  0  0
   -3.9298    0.7789   -0.0000 C   0  0  0  0  0  0  0  0  0  0  0  0
   -3.9416    2.2894   -0.0000 C   0  0  0  0  0  0  0  0  0  0  0  0
   -1.3453   -2.1950   -0.0000 N   0  0  0  0  0  0  0  0  0  0  0  0
   -3.9416   -2.1950   -0.0000 C   0  0  0  0  0  0  0  0  0  0  0  0
   -1.3571   -3.6820   -0.0000 N   0  0  0  0  0  0  0  0  0  0  0  0
   -3.9534   -3.6820   -0.0000 N   0  0  0  0  0  0  0  0  0  0  0  0
   -5.2515   -1.4397   -0.0000 N   0  0  0  0  0  0  0  0  0  0  0  0
   -2.6671   -4.4255   -0.0000 C   0  0  0  0  0  0  0  0  0  0  0  0
   -2.6789   -5.9124   -0.0000 N   0  0  0  0  0  0  0  0  0  0  0  0
  1  2  1  0  0  0  0
  2  3  2  0  0  0  0
  2  4  1  0  0  0  0
  3  5  1  0  0  0  0
  3  6  1  0  0  0  0
  4  7  1  0  0  0  0
  4  8  2  0  0  0  0
  6  9  2  0  0  0  0
  7 10  2  0  0  0  0
  7 11  1  0  0  0  0
 10 12  1  0  0  0  0
 11 13  2  0  0  0  0
 11 14  1  0  0  0  0
 12 15  2  0  0  0  0
 15 16  1  0  0  0  0
  8  9  1  0  0  0  0
 13 15  1  0  0  0  0
M  END
>  <GENERIC_NAME>
Lamotrigine

>  <SYNONYMS>
GW 273293; Lamotrigina [Spanish]; Lamotriginum [Latin]

>  <cLogP>
1.596

>  <cLogS>
-4.359

>  <H-Acceptors>
5

>  <H-Donors>
2

>  <Polar Surface Area>
90.71

>  <Druglikeness>
-1.6419

>  <Mutagenic>
none

>  <Tumorigenic>
none

>  <Reproductive Effective>
none

>  <Irritant>
none

>  <Nasty Functions>


>  <Symmetric atoms>
0

>  <Molecular Formula>
C9H7N5Cl2

>  <Total Molweight>
256.096

$$$$

Actelion Java MolfileCreator 1.0

 13 15  0  0  0  0  0  0  0  0999 V2000
    0.0000   -0.0000   -0.0000 N   0  0  0  0  0  0  0  0  0  0  0  0
   -1.3234   -0.7491   -0.0000 C   0  0  0  0  0  0  0  0  0  0  0  0
   -1.3358   -2.2472   -0.0000 C   0  0  0  0  0  0  0  0  0  0  0  0
   -2.6467    0.0250   -0.0000 C   0  0  0  0  0  0  0  0  0  0  0  0
   -2.6218   -2.9713   -0.0000 C   0  0  0  0  0  0  0  0  0  0  0  0
   -2.3970   -3.5082   -0.0000 C   0  0  0  0  0  0  0  0  0  0  0  0
   -0.0749   -2.9713   -0.0000 C   0  0  0  0  0  0  0  0  0  0  0  0
   -2.6342   -4.4195   -0.0000 C   0  0  0  0  0  0  0  0  0  0  0  0
   -2.4095   -5.0812   -0.0000 C   0  0  0  0  0  0  0  0  0  0  0  0
   -0.0874   -4.4195   -0.0000 C   0  0  0  0  0  0  0  0  0  0  0  0
   -3.9202   -5.1436   -0.0000 C   0  0  0  0  0  0  0  0  0  0  0  0
   -1.3733   -4.8690   -0.0000 C   0  0  0  0  0  0  0  0  0  0  0  0
   -1.0487   -5.7928   -0.0000 C   0  0  0  0  0  0  0  0  0  0  0  0
  2  1  1  6  0  0  0
  2  3  1  0  0  0  0
  2  4  1  0  0  0  0
  3  5  1  0  0  0  0
  3  6  1  0  0  0  0
  3  7  1  0  0  0  0
  5  8  1  0  0  0  0
  6  9  1  0  0  0  0
  7 10  1  0  0  0  0
  8 11  1  0  0  0  0
  8 12  1  0  0  0  0
  9 13  1  0  0  0  0
  9 11  1  0  0  0  0
 10 12  1  0  0  0  0
 10 13  1  0  0  0  0
M  END
>  <GENERIC_NAME>
Rimantadine

>  <SYNONYMS>
Rimantadine Hydrochloride

>  <cLogP>
1.9091

>  <cLogS>
-3.086

>  <H-Acceptors>
1

>  <H-Donors>
1

>  <Polar Surface Area>
26.02

>  <Druglikeness>
-0.02945

>  <Mutagenic>
none

>  <Tumorigenic>
none

>  <Reproductive Effective>
none

>  <Irritant>
none

>  <Nasty Functions>


>  <Symmetric atoms>
6

>  <Molecular Formula>
C12H21N

>  <Total Molweight>
179.306

$$$$

Actelion Java MolfileCreator 1.0

 14 14  0  0  0  0  0  0  0  0999 V2000
    0.0000   -0.0000   -0.0000 I   0  0  0  0  0  0  0  0  0  0  0  0
   -0.0119   -1.4968   -0.0000 C   0  0  0  0  0  0  0  0  0  0  0  0
   -0.0238   -2.9936   -0.0000 C   0  0  0  0  0  0  0  0  0  0  0  0
   -0.0356   -4.4904   -0.0000 C   0  0  0  0  0  0  0  0  0  0  0  0
   -1.3542   -5.2269   -0.0000 O   0  0  0  0  0  0  0  0  0  0  0  0
   -1.3661   -6.7237   -0.0000 C   0  0  0  0  0  0  0  0  0  0  0  0
   -2.6847   -7.4602   -0.0000 C   0  0  0  0  0  0  0  0  0  0  0  0
   -0.0713   -7.4602   -0.0000 C   0  0  0  0  0  0  0  0  0  0  0  0
   -4.0033   -6.6999   -0.0000 Cl  0  0  0  0  0  0  0  0  0  0  0  0
   -2.6966   -8.9570   -0.0000 C   0  0  0  0  0  0  0  0  0  0  0  0
   -0.0832   -8.9570   -0.0000 C   0  0  0  0  0  0  0  0  0  0  0  0
   -1.4018   -9.6935   -0.0000 C   0  0  0  0  0  0  0  0  0  0  0  0
    1.2117   -9.6935   -0.0000 Cl  0  0  0  0  0  0  0  0  0  0  0  0
   -1.4136  -11.1903   -0.0000 Cl  0  0  0  0  0  0  0  0  0  0  0  0
  1  2  1  0  0  0  0
  2  3  3  0  0  0  0
  3  4  1  0  0  0  0
  4  5  1  0  0  0  0
  5  6  1  0  0  0  0
  6  7  2  0  0  0  0
  6  8  1  0  0  0  0
  7  9  1  0  0  0  0
  7 10  1  0  0  0  0
  8 11  2  0  0  0  0
 10 12  2  0  0  0  0
 11 13  1  0  0  0  0
 12 14  1  0  0  0  0
 11 12  1  0  0  0  0
M  END
>  <GENERIC_NAME>
Haloprogin

>  <SYNONYMS>


>  <cLogP>
4.5492

>  <cLogS>
-4.922

>  <H-Acceptors>
1

>  <H-Donors>
0

>  <Polar Surface Area>
9.23

>  <Druglikeness>
-3.9136

>  <Mutagenic>
high

>  <Tumorigenic>
high

>  <Reproductive Effective>
high

>  <Irritant>
high

>  <Nasty Functions>
polyhalo aromatic ring

>  <Symmetric atoms>
0

>  <Molecular Formula>
C9H4OCl3I

>  <Total Molweight>
361.389

$$$$

Actelion Java MolfileCreator 1.0

  5  6  0  0  0  0  0  0  0  0999 V2000
    0.0000   -0.0000   -0.0000 As  0  0  0  0  0  0  0  0  0  0  0  0
   -0.5854    0.7806   -0.0000 O   0  0  0  0  0  0  0  0  0  0  0  0
   -1.6652   -1.1318   -0.0000 O   0  0  0  0  0  0  0  0  0  0  0  0
    1.2099   -0.9237   -0.0000 O   0  0  0  0  0  0  0  0  0  0  0  0
   -0.2212   -0.7155   -0.0000 As  0  0  0  0  0  0  0  0  0  0  0  0
  1  2  1  0  0  0  0
  1  3  1  0  0  0  0
  1  4  1  0  0  0  0
  2  5  1  0  0  0  0
  3  5  1  0  0  0  0
  4  5  1  0  0  0  0
M  END
>  <GENERIC_NAME>
Arsenic trioxide

>  <SYNONYMS>
Acide Arsenieux [French]; Anhydride Arsenieux [French]; Arseni Trioxydum; Arsenic Blanc [French]; Arsenic Oxidearsenous Trioxide; Arsenigen Saure [German]; Arsenious Acid; Arsenious Acid Anhydride; Arsenious Trioxide; Arsentrioxide; Oxyde Arsenieux [ISO-F<NL>ench]

>  <cLogP>
0

>  <cLogS>
-4.826

>  <H-Acceptors>
3

>  <H-Donors>
0

>  <Polar Surface Area>
27.69

>  <Druglikeness>
-1.8942

>  <Mutagenic>
low

>  <Tumorigenic>
low

>  <Reproductive Effective>
low

>  <Irritant>
high

>  <Nasty Functions>
unwanted atom

>  <Symmetric atoms>
3

>  <Molecular Formula>
O3As2

>  <Total Molweight>
197.841

$$$$

Actelion Java MolfileCreator 1.0

  6  6  0  0  0  0  0  0  0  0999 V2000
    0.0000   -0.0000   -0.0000 N   0  0  0  0  0  0  0  0  0  0  0  0
    1.2046   -0.8739   -0.0000 N   0  0  0  0  0  0  0  0  0  0  0  0
    0.4488    1.4408   -0.0000 C   0  0  0  0  0  0  0  0  0  0  0  0
    2.4092    0.0236   -0.0000 C   0  0  0  0  0  0  0  0  0  0  0  0
    1.9368    1.4526   -0.0000 C   0  0  0  0  0  0  0  0  0  0  0  0
    2.8107    2.6808   -0.0000 C   0  0  0  0  0  0  0  0  0  0  0  0
  1  2  1  0  0  0  0
  1  3  2  0  0  0  0
  2  4  1  0  0  0  0
  3  5  1  0  0  0  0
  5  6  1  0  0  0  0
  4  5  2  0  0  0  0
M  END
>  <GENERIC_NAME>
Fomepizole

>  <SYNONYMS>
4-methylpyrazole; Fomepizol [INN-Spanish]; Fomepizole [USAN:INN]; Fomepizolum [INN-Latin]

>  <cLogP>
-0.1029

>  <cLogS>
-0.533

>  <H-Acceptors>
2

>  <H-Donors>
1

>  <Polar Surface Area>
28.68

>  <Druglikeness>
2.02

>  <Mutagenic>
none

>  <Tumorigenic>
none

>  <Reproductive Effective>
none

>  <Irritant>
none

>  <Nasty Functions>


>  <Symmetric atoms>
0

>  <Molecular Formula>
C4H6N2

>  <Total Molweight>
82.1056

$$$$

Actelion Java MolfileCreator 1.0

  8  7  0  0  0  0  0  0  0  0999 V2000
    0.0000   -0.0000   -0.0000 Cl  0  0  0  0  0  0  0  0  0  0  0  0
   -1.3069   -0.7300   -0.0000 C   0  0  0  0  0  0  0  0  0  0  0  0
   -2.6138    0.0235   -0.0000 C   0  0  0  0  0  0  0  0  0  0  0  0
   -3.9207   -0.7064   -0.0000 N   0  0  0  0  0  0  0  0  0  0  0  0
   -5.2275    0.0471   -0.0000 C   0  0  0  0  0  0  0  0  0  0  0  0
   -3.9324   -2.1899   -0.0000 C   0  0  0  0  0  0  0  0  0  0  0  0
   -6.5344   -0.6829   -0.0000 C   0  0  0  0  0  0  0  0  0  0  0  0
   -7.8413    0.0706   -0.0000 Cl  0  0  0  0  0  0  0  0  0  0  0  0
  1  2  1  0  0  0  0
  2  3  1  0  0  0  0
  3  4  1  0  0  0  0
  4  5  1  0  0  0  0
  4  6  1  0  0  0  0
  5  7  1  0  0  0  0
  7  8  1  0  0  0  0
M  END
>  <GENERIC_NAME>
Mechlorethamine

>  <SYNONYMS>
Chlorethazine; Chlormethine; HN2; MBA; Mechloroethamine; Mecloretamina; Mustine; Nitrogen mustard

>  <cLogP>
1.1356

>  <cLogS>
-1.209

>  <H-Acceptors>
1

>  <H-Donors>
0

>  <Polar Surface Area>
3.24

>  <Druglikeness>
4.5307

>  <Mutagenic>
high

>  <Tumorigenic>
high

>  <Reproductive Effective>
high

>  <Irritant>
high

>  <Nasty Functions>


>  <Symmetric atoms>
3

>  <Molecular Formula>
C5H11NCl2

>  <Total Molweight>
156.055

$$$$

Actelion Java MolfileCreator 1.0

 13 13  0  0  0  0  0  0  0  0999 V2000
    0.0000   -0.0000   -0.0000 O   0  0  0  0  0  0  0  0  0  0  0  0
   -0.0118   -1.4926   -0.0000 C   0  0  0  0  0  0  0  0  0  0  0  0
    1.2793   -2.2270   -0.0000 C   0  0  0  0  0  0  0  0  0  0  0  0
   -1.3267   -2.2270   -0.0000 C   0  0  0  0  0  0  0  0  0  0  0  0
    1.2675   -3.7195   -0.0000 C   0  0  0  0  0  0  0  0  0  0  0  0
    2.5705   -1.4689   -0.0000 C   0  0  0  0  0  0  0  0  0  0  0  0
   -1.3386   -3.7195   -0.0000 C   0  0  0  0  0  0  0  0  0  0  0  0
   -2.6416   -1.4689   -0.0000 C   0  0  0  0  0  0  0  0  0  0  0  0
   -0.0474   -4.4540   -0.0000 C   0  0  0  0  0  0  0  0  0  0  0  0
    3.8617   -2.2033   -0.0000 C   0  0  0  0  0  0  0  0  0  0  0  0
    2.5587    0.0474   -0.0000 C   0  0  0  0  0  0  0  0  0  0  0  0
   -3.9565   -2.2033   -0.0000 C   0  0  0  0  0  0  0  0  0  0  0  0
   -2.6534    0.0474   -0.0000 C   0  0  0  0  0  0  0  0  0  0  0  0
  1  2  1  0  0  0  0
  2  3  2  0  0  0  0
  2  4  1  0  0  0  0
  3  5  1  0  0  0  0
  3  6  1  0  0  0  0
  4  7  2  0  0  0  0
  4  8  1  0  0  0  0
  5  9  2  0  0  0  0
  6 10  1  0  0  0  0
  6 11  1  0  0  0  0
  8 12  1  0  0  0  0
  8 13  1  0  0  0  0
  7  9  1  0  0  0  0
M  END
>  <GENERIC_NAME>
Propofol

>  <SYNONYMS>
2,6-Diisopropylphenol; Diisopropylphenol

>  <cLogP>
3.6879

>  <cLogS>
-3.062

>  <H-Acceptors>
1

>  <H-Donors>
1

>  <Polar Surface Area>
20.23

>  <Druglikeness>
-2.3359

>  <Mutagenic>
none

>  <Tumorigenic>
none

>  <Reproductive Effective>
high

>  <Irritant>
low

>  <Nasty Functions>


>  <Symmetric atoms>
6

>  <Molecular Formula>
C12H18O

>  <Total Molweight>
178.274

$$$$

Actelion Java MolfileCreator 1.0

 17 18  0  0  0  0  0  0  0  0999 V2000
    0.0000   -0.0000   -0.0000 O   0  0  0  0  0  0  0  0  0  0  0  0
    1.2928   -0.7353   -0.0000 C   0  0  0  0  0  0  0  0  0  0  0  0
    2.5855    0.0237   -0.0000 C   0  0  0  0  0  0  0  0  0  0  0  0
    1.2809   -2.2297   -0.0000 C   0  0  0  0  0  0  0  0  0  0  0  0
    2.5737    1.5418   -0.0000 C   0  0  0  0  0  0  0  0  0  0  0  0
    3.8783   -0.7116   -0.0000 C   0  0  0  0  0  0  0  0  0  0  0  0
    1.2690   -3.7241   -0.0000 C   0  0  0  0  0  0  0  0  0  0  0  0
   -0.2372   -2.2179   -0.0000 C   0  0  0  0  0  0  0  0  0  0  0  0
    2.7753   -2.2179   -0.0000 C   0  0  0  0  0  0  0  0  0  0  0  0
    3.8665    2.3128   -0.0000 N   0  0  0  0  0  0  0  0  0  0  0  0
    5.1711    0.0474   -0.0000 C   0  0  0  0  0  0  0  0  0  0  0  0
   -0.0474   -4.4595   -0.0000 C   0  0  0  0  0  0  0  0  0  0  0  0
    2.5618   -4.4595   -0.0000 C   0  0  0  0  0  0  0  0  0  0  0  0
    5.1592    1.5656   -0.0000 C   0  0  0  0  0  0  0  0  0  0  0  0
   -0.0593   -5.9539   -0.0000 N   0  0  0  0  0  0  0  0  0  0  0  0
    2.5500   -5.9539   -0.0000 C   0  0  0  0  0  0  0  0  0  0  0  0
    1.2335   -6.7011   -0.0000 C   0  0  0  0  0  0  0  0  0  0  0  0
  1  2  2  0  0  0  0
  2  3  1  0  0  0  0
  2  4  1  0  0  0  0
  3  5  2  0  0  0  0
  3  6  1  0  0  0  0
  4  7  1  0  0  0  0
  4  8  1  0  0  0  0
  4  9  1  0  0  0  0
  5 10  1  0  0  0  0
  6 11  2  0  0  0  0
  7 12  2  0  0  0  0
  7 13  1  0  0  0  0
 10 14  2  0  0  0  0
 12 15  1  0  0  0  0
 13 16  2  0  0  0  0
 15 17  2  0  0  0  0
 11 14  1  0  0  0  0
 16 17  1  0  0  0  0
M  END
>  <GENERIC_NAME>
Metyrapone

>  <SYNONYMS>
Mepyrapone; Methapyrapone; Methbipyranone; Methopirapone; Methopyrapone; Methopyrinine; Methopyrone; Metroprione; Metyrapon

>  <cLogP>
1.7933

>  <cLogS>
-2.502

>  <H-Acceptors>
3

>  <H-Donors>
0

>  <Polar Surface Area>
42.85

>  <Druglikeness>
-3.1399

>  <Mutagenic>
high

>  <Tumorigenic>
none

>  <Reproductive Effective>
high

>  <Irritant>
none

>  <Nasty Functions>


>  <Symmetric atoms>
1

>  <Molecular Formula>
C14H14N2O

>  <Total Molweight>
226.278

$$$$

Actelion Java MolfileCreator 1.0

 11 13  0  0  0  0  0  0  0  0999 V2000
    0.0000   -0.0000   -0.0000 N   0  0  0  0  0  0  0  0  0  0  0  0
   -0.0125   -1.5041   -0.0000 C   0  0  0  0  0  0  0  0  0  0  0  0
    1.2534   -2.2311   -0.0000 C   0  0  0  0  0  0  0  0  0  0  0  0
   -1.0779   -2.7700   -0.0000 C   0  0  0  0  0  0  0  0  0  0  0  0
   -1.3035   -2.2311   -0.0000 C   0  0  0  0  0  0  0  0  0  0  0  0
    1.2409   -3.6850   -0.0000 C   0  0  0  0  0  0  0  0  0  0  0  0
   -1.0905   -4.3493   -0.0000 C   0  0  0  0  0  0  0  0  0  0  0  0
   -1.3161   -3.6850   -0.0000 C   0  0  0  0  0  0  0  0  0  0  0  0
    0.2758   -5.0638   -0.0000 C   0  0  0  0  0  0  0  0  0  0  0  0
   -0.0501   -4.1363   -0.0000 C   0  0  0  0  0  0  0  0  0  0  0  0
   -2.5946   -4.4120   -0.0000 C   0  0  0  0  0  0  0  0  0  0  0  0
  1  2  1  0  0  0  0
  2  3  1  0  0  0  0
  2  4  1  0  0  0  0
  2  5  1  0  0  0  0
  3  6  1  0  0  0  0
  4  7  1  0  0  0  0
  5  8  1  0  0  0  0
  6  9  1  0  0  0  0
  6 10  1  0  0  0  0
  7 11  1  0  0  0  0
  7  9  1  0  0  0  0
  8 10  1  0  0  0  0
  8 11  1  0  0  0  0
M  END
>  <GENERIC_NAME>
Amantadine

>  <SYNONYMS>
1-aminoadamantane; Adamantamine; Adamantanamine; Adamantylamine; Amantadine Base; Amantadine HCL; Amantadine Hydrochloride; Amantidine; Aminoadamantane

>  <cLogP>
1.3216

>  <cLogS>
-2.588

>  <H-Acceptors>
1

>  <H-Donors>
1

>  <Polar Surface Area>
26.02

>  <Druglikeness>
-0.81751

>  <Mutagenic>
high

>  <Tumorigenic>
none

>  <Reproductive Effective>
none

>  <Irritant>
none

>  <Nasty Functions>


>  <Symmetric atoms>
6

>  <Molecular Formula>
C10H17N

>  <Total Molweight>
151.252

$$$$

Actelion Java MolfileCreator 1.0

 19 21  0  0  0  0  0  0  0  0999 V2000
    0.0000   -0.0000   -0.0000 N   0  0  0  0  0  0  0  0  0  0  0  0
    1.3258   -0.7542   -0.0000 C   0  0  0  0  0  0  0  0  0  0  0  0
   -1.3380   -0.7785   -0.0000 C   0  0  0  0  0  0  0  0  0  0  0  0
    1.3137   -2.2868   -0.0000 N   0  0  0  0  0  0  0  0  0  0  0  0
    2.5909   -0.0000   -0.0000 N   0  0  0  0  0  0  0  0  0  0  0  0
   -2.6395   -0.0243   -0.0000 N   0  0  0  0  0  0  0  0  0  0  0  0
   -1.3502   -2.2503   -0.0000 C   0  0  0  0  0  0  0  0  0  0  0  0
   -0.0365   -3.0409   -0.0000 C   0  0  0  0  0  0  0  0  0  0  0  0
   -3.9410   -0.7542   -0.0000 C   0  0  0  0  0  0  0  0  0  0  0  0
   -2.6517   -2.9801   -0.0000 N   0  0  0  0  0  0  0  0  0  0  0  0
   -0.0608   -4.5127   -0.0000 N   0  0  0  0  0  0  0  0  0  0  0  0
   -5.2426   -0.0000   -0.0000 N   0  0  0  0  0  0  0  0  0  0  0  0
   -3.9532   -2.2260   -0.0000 C   0  0  0  0  0  0  0  0  0  0  0  0
   -5.2547   -2.9558   -0.0000 C   0  0  0  0  0  0  0  0  0  0  0  0
   -5.2669   -4.4276   -0.0000 C   0  0  0  0  0  0  0  0  0  0  0  0
   -6.5562   -2.2016   -0.0000 C   0  0  0  0  0  0  0  0  0  0  0  0
   -6.5684   -5.1574   -0.0000 C   0  0  0  0  0  0  0  0  0  0  0  0
   -7.8578   -2.9315   -0.0000 C   0  0  0  0  0  0  0  0  0  0  0  0
   -7.8699   -4.4033   -0.0000 C   0  0  0  0  0  0  0  0  0  0  0  0
  1  2  2  0  0  0  0
  1  3  1  0  0  0  0
  2  4  1  0  0  0  0
  2  5  1  0  0  0  0
  3  6  2  0  0  0  0
  3  7  1  0  0  0  0
  4  8  2  0  0  0  0
  6  9  1  0  0  0  0
  7 10  2  0  0  0  0
  8 11  1  0  0  0  0
  9 12  1  0  0  0  0
  9 13  2  0  0  0  0
 13 14  1  0  0  0  0
 14 15  2  0  0  0  0
 14 16  1  0  0  0  0
 15 17  1  0  0  0  0
 16 18  2  0  0  0  0
 17 19  2  0  0  0  0
  7  8  1  0  0  0  0
 10 13  1  0  0  0  0
 18 19  1  0  0  0  0
M  END
>  <GENERIC_NAME>
Triamterene

>  <SYNONYMS>
Triamteren

>  <cLogP>
0.6075

>  <cLogS>
-4.59

>  <H-Acceptors>
7

>  <H-Donors>
3

>  <Polar Surface Area>
129.62

>  <Druglikeness>
-1.805

>  <Mutagenic>
high

>  <Tumorigenic>
high

>  <Reproductive Effective>
none

>  <Irritant>
none

>  <Nasty Functions>


>  <Symmetric atoms>
2

>  <Molecular Formula>
C12H11N7

>  <Total Molweight>
253.268

$$$$

Actelion Java MolfileCreator 1.0

 17 17  0  0  0  0  0  0  0  0999 V2000
    0.0000   -0.0000   -0.0000 Cl  0  0  0  0  0  0  0  0  0  0  0  0
   -0.0118    1.5091   -0.0000 C   0  0  0  0  0  0  0  0  0  0  0  0
    1.2733    2.2637   -0.0000 C   0  0  0  0  0  0  0  0  0  0  0  0
   -1.3205    2.2637   -0.0000 C   0  0  0  0  0  0  0  0  0  0  0  0
    1.2615    3.7728   -0.0000 C   0  0  0  0  0  0  0  0  0  0  0  0
   -1.3323    3.7728   -0.0000 C   0  0  0  0  0  0  0  0  0  0  0  0
   -0.0472    4.5274   -0.0000 C   0  0  0  0  0  0  0  0  0  0  0  0
   -0.0590    6.0365   -0.0000 S   0  0  0  0  0  0  0  0  0  0  0  0
    1.2262    6.7911   -0.0000 C   0  0  0  0  0  0  0  0  0  0  0  0
    1.2144    8.3002   -0.0000 P   0  0  0  0  0  0  0  0  0  0  0  0
    2.5113    6.0601   -0.0000 P   0  0  0  0  0  0  0  0  0  0  0  0
   -0.2948    8.3120   -0.0000 O   0  0  0  0  0  0  0  0  0  0  0  0
    1.2026    9.8094   -0.0000 O   0  0  0  0  0  0  0  0  0  0  0  0
    2.6999    8.3120   -0.0000 O   0  0  0  0  0  0  0  0  0  0  0  0
    1.7449    4.7750   -0.0000 O   0  0  0  0  0  0  0  0  0  0  0  0
    3.7964    5.3291   -0.0000 O   0  0  0  0  0  0  0  0  0  0  0  0
    3.2541    7.3688   -0.0000 O   0  0  0  0  0  0  0  0  0  0  0  0
  1  2  1  0  0  0  0
  2  3  2  0  0  0  0
  2  4  1  0  0  0  0
  3  5  1  0  0  0  0
  4  6  2  0  0  0  0
  5  7  2  0  0  0  0
  7  8  1  0  0  0  0
  8  9  1  0  0  0  0
  9 10  1  0  0  0  0
  9 11  1  0  0  0  0
 10 12  2  0  0  0  0
 10 13  1  0  0  0  0
 10 14  1  0  0  0  0
 11 15  2  0  0  0  0
 11 16  1  0  0  0  0
 11 17  1  0  0  0  0
  6  7  1  0  0  0  0
M  END
>  <GENERIC_NAME>
Tiludronate

>  <SYNONYMS>
Acide tiludronique [INN-French]; Acido tiludronico [INN-Spanish]; Acidum tiludronicum [INN-Latin]; Tiludronate disodium; Tiludronic acid; Tiludronic Acid Disodium Salt

>  <cLogP>
-4.5017

>  <cLogS>
-2.444

>  <H-Acceptors>
6

>  <H-Donors>
4

>  <Polar Surface Area>
159.98

>  <Druglikeness>
-11.721

>  <Mutagenic>
none

>  <Tumorigenic>
none

>  <Reproductive Effective>
none

>  <Irritant>
none

>  <Nasty Functions>


>  <Symmetric atoms>
7

>  <Molecular Formula>
C7H9O6ClP2S

>  <Total Molweight>
318.609

$$$$

Actelion Java MolfileCreator 1.0

  8  8  0  0  0  0  0  0  0  0999 V2000
    0.0000   -0.0000   -0.0000 O   0  0  0  0  0  0  0  0  0  0  0  0
    0.7374   -1.2965   -0.0000 C   0  0  0  0  0  0  0  0  0  0  0  0
   -0.0238   -2.5930   -0.0000 C   0  0  0  0  0  0  0  0  0  0  0  0
   -1.3441   -3.3304   -0.0000 C   0  0  0  0  0  0  0  0  0  0  0  0
    1.2727   -3.3304   -0.0000 C   0  0  0  0  0  0  0  0  0  0  0  0
   -1.3559   -4.8291   -0.0000 C   0  0  0  0  0  0  0  0  0  0  0  0
    1.2608   -4.8291   -0.0000 C   0  0  0  0  0  0  0  0  0  0  0  0
   -0.0595   -5.5665   -0.0000 C   0  0  0  0  0  0  0  0  0  0  0  0
  1  2  1  0  0  0  0
  2  3  1  0  0  0  0
  3  4  2  0  0  0  0
  3  5  1  0  0  0  0
  4  6  1  0  0  0  0
  5  7  2  0  0  0  0
  6  8  2  0  0  0  0
  7  8  1  0  0  0  0
M  END
>  <GENERIC_NAME>
Benzyl alcohol

>  <SYNONYMS>
(Hydroxymethyl)benzene; Alcoolbenzylique; Bentalol; Benzalalcohol; Benzalcohol; Benzenemethanol; Benzoyl alcohol; Benzyl Alcohol Lotion 5%; Phenylmethanol; Ulesfia

>  <cLogP>
1.0623

>  <cLogS>
-1.5

>  <H-Acceptors>
1

>  <H-Donors>
1

>  <Polar Surface Area>
20.23

>  <Druglikeness>
-2.2456

>  <Mutagenic>
high

>  <Tumorigenic>
high

>  <Reproductive Effective>
high

>  <Irritant>
high

>  <Nasty Functions>


>  <Symmetric atoms>
2

>  <Molecular Formula>
C7H8O

>  <Total Molweight>
108.14

$$$$

Actelion Java MolfileCreator 1.0

 10  9  0  0  0  0  0  0  0  0999 V2000
    0.0000   -0.0000   -0.0000 Cl  0  0  0  0  0  0  0  0  0  0  0  0
   -1.3062    0.7531   -0.0000 C   0  0  0  0  0  0  0  0  0  0  0  0
   -1.3180    2.2594   -0.0000 F   0  0  0  0  0  0  0  0  0  0  0  0
   -2.6124    0.0235   -0.0000 C   0  0  0  0  0  0  0  0  0  0  0  0
   -3.3655    1.3297   -0.0000 F   0  0  0  0  0  0  0  0  0  0  0  0
   -1.8828   -1.2591   -0.0000 F   0  0  0  0  0  0  0  0  0  0  0  0
   -3.9186   -0.7061   -0.0000 O   0  0  0  0  0  0  0  0  0  0  0  0
   -5.2248    0.0471   -0.0000 C   0  0  0  0  0  0  0  0  0  0  0  0
   -6.5310   -0.6825   -0.0000 F   0  0  0  0  0  0  0  0  0  0  0  0
   -5.2366    1.5533   -0.0000 F   0  0  0  0  0  0  0  0  0  0  0  0
  2  1  1  1  0  0  0
  2  3  1  0  0  0  0
  2  4  1  0  0  0  0
  4  5  1  0  0  0  0
  4  6  1  0  0  0  0
  4  7  1  0  0  0  0
  7  8  1  0  0  0  0
  8  9  1  0  0  0  0
  8 10  1  0  0  0  0
M  END
>  <GENERIC_NAME>
Enflurane

>  <SYNONYMS>
Anesthetic 347; Anesthetic Compound No. 347; Compound 347; Enflurano [INN-Spanish]; Enfluranum [INN-Latin]; Methylflurether; Ohio 347

>  <cLogP>
1.4972

>  <cLogS>
-2.488

>  <H-Acceptors>
1

>  <H-Donors>
0

>  <Polar Surface Area>
9.23

>  <Druglikeness>
-12.284

>  <Mutagenic>
high

>  <Tumorigenic>
high

>  <Reproductive Effective>
high

>  <Irritant>
high

>  <Nasty Functions>


>  <Symmetric atoms>
2

>  <Molecular Formula>
C3H2OClF5

>  <Total Molweight>
184.491

$$$$

Actelion Java MolfileCreator 1.0

 28 30  0  0  0  0  0  0  0  0999 V2000
    0.0000   -0.0000   -0.0000 N   0  0  0  0  0  0  0  0  0  0  0  0
   -0.0118    1.5089   -0.0000 C   0  0  0  0  0  0  0  0  0  0  0  0
   -1.3085   -0.7309   -0.0000 C   0  0  0  0  0  0  0  0  0  0  0  0
    1.2849   -0.7309   -0.0000 C   0  0  0  0  0  0  0  0  0  0  0  0
    1.2731    2.2633   -0.0000 C   0  0  0  0  0  0  0  0  0  0  0  0
   -1.3203    2.2633   -0.0000 C   0  0  0  0  0  0  0  0  0  0  0  0
    1.2613    3.7722   -0.0000 C   0  0  0  0  0  0  0  0  0  0  0  0
   -1.3321    3.7722   -0.0000 C   0  0  0  0  0  0  0  0  0  0  0  0
   -0.0472    4.5267   -0.0000 C   0  0  0  0  0  0  0  0  0  0  0  0
   -0.0589    6.0356   -0.0000 C   0  0  0  0  0  0  0  0  0  0  0  0
   -1.3674    6.7900   -0.0000 C   0  0  0  0  0  0  0  0  0  0  0  0
    1.2260    6.7900   -0.0000 C   0  0  0  0  0  0  0  0  0  0  0  0
   -2.6759    6.0591   -0.0000 C   0  0  0  0  0  0  0  0  0  0  0  0
   -1.3792    8.2989   -0.0000 C   0  0  0  0  0  0  0  0  0  0  0  0
    1.2142    8.2989   -0.0000 C   0  0  0  0  0  0  0  0  0  0  0  0
    2.5109    6.0591   -0.0000 C   0  0  0  0  0  0  0  0  0  0  0  0
   -3.9844    6.8136   -0.0000 C   0  0  0  0  0  0  0  0  0  0  0  0
   -2.6877    9.0533   -0.0000 C   0  0  0  0  0  0  0  0  0  0  0  0
    2.4991    9.0533   -0.0000 C   0  0  0  0  0  0  0  0  0  0  0  0
    3.7958    6.8136   -0.0000 C   0  0  0  0  0  0  0  0  0  0  0  0
   -3.9962    8.3225   -0.0000 C   0  0  0  0  0  0  0  0  0  0  0  0
    3.7840    8.3225   -0.0000 C   0  0  0  0  0  0  0  0  0  0  0  0
   -5.3047    9.0769   -0.0000 N   0  0  0  0  0  0  0  0  0  0  0  0
    5.0689    9.0769   -0.0000 N   0  0  0  0  0  0  0  0  0  0  0  0
   -5.3165   10.5858   -0.0000 C   0  0  0  0  0  0  0  0  0  0  0  0
   -6.6132    8.3460   -0.0000 C   0  0  0  0  0  0  0  0  0  0  0  0
    5.0571   10.5858   -0.0000 C   0  0  0  0  0  0  0  0  0  0  0  0
    6.3538    8.3460   -0.0000 C   0  0  0  0  0  0  0  0  0  0  0  0
  1  2  2  0  0  0  0
  1  3  1  0  0  0  0
  1  4  1  0  0  0  0
  2  5  1  0  0  0  0
  2  6  1  0  0  0  0
  5  7  2  0  0  0  0
  6  8  2  0  0  0  0
  7  9  1  0  0  0  0
  9 10  2  0  0  0  0
 10 11  1  0  0  0  0
 10 12  1  0  0  0  0
 11 13  2  0  0  0  0
 11 14  1  0  0  0  0
 12 15  2  0  0  0  0
 12 16  1  0  0  0  0
 13 17  1  0  0  0  0
 14 18  2  0  0  0  0
 15 19  1  0  0  0  0
 16 20  2  0  0  0  0
 17 21  2  0  0  0  0
 19 22  2  0  0  0  0
 21 23  1  0  0  0  0
 22 24  1  0  0  0  0
 23 25  1  0  0  0  0
 23 26  1  0  0  0  0
 24 27  1  0  0  0  0
 24 28  1  0  0  0  0
  8  9  1  0  0  0  0
 18 21  1  0  0  0  0
 20 22  1  0  0  0  0
M  CHG  1   1   1
M  END
>  <GENERIC_NAME>
Gentian Violet

>  <SYNONYMS>
Crystal Violet

>  <cLogP>
0.6992

>  <cLogS>
-3.473

>  <H-Acceptors>
3

>  <H-Donors>
0

>  <Polar Surface Area>
9.49

>  <Druglikeness>
-10.07

>  <Mutagenic>
high

>  <Tumorigenic>
high

>  <Reproductive Effective>
high

>  <Irritant>
none

>  <Nasty Functions>
tert. immonium

>  <Symmetric atoms>
15

>  <Molecular Formula>
C25H30N3

>  <Total Molweight>
372.534

$$$$

Actelion Java MolfileCreator 1.0

 14 14  0  0  0  0  0  0  0  0999 V2000
    0.0000   -0.0000   -0.0000 O   0  0  0  0  0  0  0  0  0  0  0  0
   -1.3057    0.7528   -0.0000 C   0  0  0  0  0  0  0  0  0  0  0  0
   -1.3175    2.2585   -0.0000 N   0  0  0  0  0  0  0  0  0  0  0  0
   -2.6114    0.0235   -0.0000 N   0  0  0  0  0  0  0  0  0  0  0  0
   -0.0353    3.0113   -0.0000 C   0  0  0  0  0  0  0  0  0  0  0  0
   -2.6232    3.0113   -0.0000 C   0  0  0  0  0  0  0  0  0  0  0  0
   -2.6232   -1.4586   -0.0000 C   0  0  0  0  0  0  0  0  0  0  0  0
   -3.9171    0.7764   -0.0000 C   0  0  0  0  0  0  0  0  0  0  0  0
   -0.0471    4.5170   -0.0000 C   0  0  0  0  0  0  0  0  0  0  0  0
   -2.6349    4.5170   -0.0000 C   0  0  0  0  0  0  0  0  0  0  0  0
   -3.9289   -2.1997   -0.0000 C   0  0  0  0  0  0  0  0  0  0  0  0
   -5.2228    0.0471   -0.0000 C   0  0  0  0  0  0  0  0  0  0  0  0
   -1.3528    5.2698   -0.0000 N   0  0  0  0  0  0  0  0  0  0  0  0
   -1.3645    6.7755   -0.0000 C   0  0  0  0  0  0  0  0  0  0  0  0
  1  2  2  0  0  0  0
  2  3  1  0  0  0  0
  2  4  1  0  0  0  0
  3  5  1  0  0  0  0
  3  6  1  0  0  0  0
  4  7  1  0  0  0  0
  4  8  1  0  0  0  0
  5  9  1  0  0  0  0
  6 10  1  0  0  0  0
  7 11  1  0  0  0  0
  8 12  1  0  0  0  0
  9 13  1  0  0  0  0
 13 14  1  0  0  0  0
 10 13  1  0  0  0  0
M  END
>  <GENERIC_NAME>
Diethylcarbamazine

>  <SYNONYMS>
Carbamazine; Carbilazine; Diethyl carbamazine; Ditrazine base; Ethodryl

>  <cLogP>
0.8076

>  <cLogS>
-0.075

>  <H-Acceptors>
4

>  <H-Donors>
0

>  <Polar Surface Area>
26.79

>  <Druglikeness>
9.003

>  <Mutagenic>
none

>  <Tumorigenic>
low

>  <Reproductive Effective>
none

>  <Irritant>
none

>  <Nasty Functions>


>  <Symmetric atoms>
4

>  <Molecular Formula>
C10H21N3O

>  <Total Molweight>
199.297

$$$$

Actelion Java MolfileCreator 1.0

 21 22  0  0  0  0  0  0  0  0999 V2000
    0.0000   -0.0000   -0.0000 Cl  0  0  0  0  0  0  0  0  0  0  0  0
   -0.9798    1.1569   -0.0000 C   0  0  0  0  0  0  0  0  0  0  0  0
   -0.4840    2.5735   -0.0000 C   0  0  0  0  0  0  0  0  0  0  0  0
   -2.4673    0.9090   -0.0000 C   0  0  0  0  0  0  0  0  0  0  0  0
    0.9798    2.8451   -0.0000 Cl  0  0  0  0  0  0  0  0  0  0  0  0
   -1.4638    3.7304   -0.0000 C   0  0  0  0  0  0  0  0  0  0  0  0
   -3.4471    2.0659   -0.0000 C   0  0  0  0  0  0  0  0  0  0  0  0
   -2.9867   -0.4840   -0.0000 C   0  0  0  0  0  0  0  0  0  0  0  0
   -2.9513    3.4825   -0.0000 C   0  0  0  0  0  0  0  0  0  0  0  0
   -4.9346    1.8180   -0.0000 O   0  0  0  0  0  0  0  0  0  0  0  0
   -2.9985   -1.9715   -0.0000 C   0  0  0  0  0  0  0  0  0  0  0  0
   -3.9311    4.6394   -0.0000 Cl  0  0  0  0  0  0  0  0  0  0  0  0
   -1.7118   -2.7034   -0.0000 C   0  0  0  0  0  0  0  0  0  0  0  0
   -4.3089   -2.7034   -0.0000 C   0  0  0  0  0  0  0  0  0  0  0  0
   -0.4250   -1.9479   -0.0000 Cl  0  0  0  0  0  0  0  0  0  0  0  0
   -1.7236   -4.1908   -0.0000 C   0  0  0  0  0  0  0  0  0  0  0  0
   -5.6193   -1.9479   -0.0000 O   0  0  0  0  0  0  0  0  0  0  0  0
   -4.3207   -4.1908   -0.0000 C   0  0  0  0  0  0  0  0  0  0  0  0
   -0.4368   -4.9346   -0.0000 Cl  0  0  0  0  0  0  0  0  0  0  0  0
   -3.0339   -4.9346   -0.0000 C   0  0  0  0  0  0  0  0  0  0  0  0
   -5.6311   -4.9346   -0.0000 Cl  0  0  0  0  0  0  0  0  0  0  0  0
  1  2  1  0  0  0  0
  2  3  2  0  0  0  0
  2  4  1  0  0  0  0
  3  5  1  0  0  0  0
  3  6  1  0  0  0  0
  4  7  2  0  0  0  0
  4  8  1  0  0  0  0
  6  9  2  0  0  0  0
  7 10  1  0  0  0  0
  8 11  1  0  0  0  0
  9 12  1  0  0  0  0
 11 13  2  0  0  0  0
 11 14  1  0  0  0  0
 13 15  1  0  0  0  0
 13 16  1  0  0  0  0
 14 17  1  0  0  0  0
 14 18  2  0  0  0  0
 16 19  1  0  0  0  0
 16 20  2  0  0  0  0
 18 21  1  0  0  0  0
  7  9  1  0  0  0  0
 18 20  1  0  0  0  0
M  END
>  <GENERIC_NAME>
Hexachlorophene

>  <SYNONYMS>


>  <cLogP>
6.4201

>  <cLogS>
-7.151

>  <H-Acceptors>
2

>  <H-Donors>
2

>  <Polar Surface Area>
40.46

>  <Druglikeness>
-2.0352

>  <Mutagenic>
high

>  <Tumorigenic>
high

>  <Reproductive Effective>
high

>  <Irritant>
low

>  <Nasty Functions>
polyhalo aromatic ring; polyhalo aromatic ring

>  <Symmetric atoms>
10

>  <Molecular Formula>
C13H6O2Cl6

>  <Total Molweight>
406.907

$$$$

Actelion Java MolfileCreator 1.0

 12 11  0  0  0  0  0  0  0  0999 V2000
    0.0000   -0.0000   -0.0000 O   0  0  0  0  0  0  0  0  0  0  0  0
    0.0000   -1.4919   -0.0000 C   0  0  0  0  0  0  0  0  0  0  0  0
    1.3024   -2.2142   -0.0000 C   0  0  0  0  0  0  0  0  0  0  0  0
   -1.3143   -2.2497   -0.0000 C   0  0  0  0  0  0  0  0  0  0  0  0
    1.3024   -3.7061   -0.0000 O   0  0  0  0  0  0  0  0  0  0  0  0
    2.5931   -1.4327   -0.0000 C   0  0  0  0  0  0  0  0  0  0  0  0
   -1.3143   -3.7416   -0.0000 O   0  0  0  0  0  0  0  0  0  0  0  0
   -2.6404   -1.5037   -0.0000 C   0  0  0  0  0  0  0  0  0  0  0  0
    2.5694    0.0829   -0.0000 O   0  0  0  0  0  0  0  0  0  0  0  0
    3.8955   -2.1550   -0.0000 C   0  0  0  0  0  0  0  0  0  0  0  0
   -3.9310   -2.2497   -0.0000 O   0  0  0  0  0  0  0  0  0  0  0  0
    3.8955   -3.6468   -0.0000 O   0  0  0  0  0  0  0  0  0  0  0  0
  2  1  1  6  0  0  0
  2  3  1  0  0  0  0
  2  4  1  0  0  0  0
  3  5  1  6  0  0  0
  3  6  1  0  0  0  0
  4  7  1  1  0  0  0
  4  8  1  0  0  0  0
  6  9  1  1  0  0  0
  6 10  1  0  0  0  0
  8 11  1  0  0  0  0
 10 12  1  0  0  0  0
M  END
>  <GENERIC_NAME>
Mannitol

>  <SYNONYMS>
Cordycepic acid; D-Mannitol; Osmitrol

>  <cLogP>
-3.1458

>  <cLogS>
0.546

>  <H-Acceptors>
6

>  <H-Donors>
6

>  <Polar Surface Area>
121.38

>  <Druglikeness>
-0.1995

>  <Mutagenic>
none

>  <Tumorigenic>
none

>  <Reproductive Effective>
none

>  <Irritant>
none

>  <Nasty Functions>


>  <Symmetric atoms>
6

>  <Molecular Formula>
C6H14O6

>  <Total Molweight>
182.171

$$$$

Actelion Java MolfileCreator 1.0

 13 12  0  0  0  0  0  0  0  0999 V2000
    0.0000   -0.0000   -0.0000 Fe  0  0  0  0  0  0  0  0  0  0  0  0
   -0.0118    1.5136   -0.0000 N   0  0  0  0  0  0  0  0  0  0  0  0
    1.2890    0.7568   -0.0000 C   0  0  0  0  0  0  0  0  0  0  0  0
   -0.0118   -1.4900   -0.0000 C   0  0  0  0  0  0  0  0  0  0  0  0
   -1.3126    0.7568   -0.0000 C   0  0  0  0  0  0  0  0  0  0  0  0
    1.2890   -0.7332   -0.0000 C   0  0  0  0  0  0  0  0  0  0  0  0
   -1.3126   -0.7332   -0.0000 C   0  0  0  0  0  0  0  0  0  0  0  0
   -0.0237    3.0273   -0.0000 O   0  0  0  0  0  0  0  0  0  0  0  0
    2.5779    1.5136   -0.0000 N   0  0  0  0  0  0  0  0  0  0  0  0
   -0.0237   -2.9800   -0.0000 N   0  0  0  0  0  0  0  0  0  0  0  0
   -2.6252    1.5136   -0.0000 N   0  0  0  0  0  0  0  0  0  0  0  0
    2.5779   -1.4663   -0.0000 N   0  0  0  0  0  0  0  0  0  0  0  0
   -2.6252   -1.4663   -0.0000 N   0  0  0  0  0  0  0  0  0  0  0  0
  1  2  1  0  0  0  0
  1  3  1  0  0  0  0
  1  4  1  0  0  0  0
  1  5  1  0  0  0  0
  1  6  1  0  0  0  0
  1  7  1  0  0  0  0
  2  8  2  0  0  0  0
  3  9  3  0  0  0  0
  4 10  3  0  0  0  0
  5 11  3  0  0  0  0
  6 12  3  0  0  0  0
  7 13  3  0  0  0  0
M  END
>  <GENERIC_NAME>
Nitroprusside

>  <SYNONYMS>
Disodium nitroprusside dihydrate; Sodium nitroferricyanide dihydrate; Sodium Nitroprusside; Sodium nitroprusside dihydrate

>  <cLogP>
-1.8905

>  <cLogS>
1.477

>  <H-Acceptors>
7

>  <H-Donors>
0

>  <Polar Surface Area>
148.38

>  <Druglikeness>
-7.4372

>  <Mutagenic>
high

>  <Tumorigenic>
high

>  <Reproductive Effective>
none

>  <Irritant>
none

>  <Nasty Functions>
unwanted atom; nitroso

>  <Symmetric atoms>
8

>  <Molecular Formula>
C5N6OFe

>  <Total Molweight>
215.941

$$$$

Actelion Java MolfileCreator 1.0

 10 10  0  0  0  0  0  0  0  0999 V2000
    0.0000   -0.0000   -0.0000 N   0  0  0  0  0  0  0  0  0  0  0  0
   -1.3085   -0.7309   -0.0000 C   0  0  0  0  0  0  0  0  0  0  0  0
   -2.6170    0.0354   -0.0000 C   0  0  0  0  0  0  0  0  0  0  0  0
   -1.3203   -2.2162   -0.0000 C   0  0  0  0  0  0  0  0  0  0  0  0
   -3.9254   -0.6955   -0.0000 C   0  0  0  0  0  0  0  0  0  0  0  0
   -3.9372   -2.1808   -0.0000 C   0  0  0  0  0  0  0  0  0  0  0  0
   -5.2339    0.0707   -0.0000 C   0  0  0  0  0  0  0  0  0  0  0  0
   -5.2457   -2.9117   -0.0000 C   0  0  0  0  0  0  0  0  0  0  0  0
   -6.5424   -0.6601   -0.0000 C   0  0  0  0  0  0  0  0  0  0  0  0
   -6.5542   -2.1454   -0.0000 C   0  0  0  0  0  0  0  0  0  0  0  0
  2  1  1  1  0  0  0
  2  3  1  0  0  0  0
  2  4  1  0  0  0  0
  3  5  1  0  0  0  0
  5  6  2  0  0  0  0
  5  7  1  0  0  0  0
  6  8  1  0  0  0  0
  7  9  2  0  0  0  0
  8 10  2  0  0  0  0
  9 10  1  0  0  0  0
M  END
>  <GENERIC_NAME>
Amphetamine

>  <SYNONYMS>
(+/-)-Benzedrine; (+/-)-beta-Phenylisopropylamine; (+/-)-Desoxynorephedrine; [1-(3-Methoxyphenyl)-2-propyl]amine; 1-Methyl-2-phenylethylamine; 1-Phenyl-2-aminopropane; 3-Methoxyamphetamine; alpha-Methylbenzeneethaneamine; Amfetamine; Amphetamine Sulfate; <NL>eta-Aminopropylbenzene; beta-phenyl-isopropylamine; dl-1-Phenyl-2-aminopropane; DL-alpha-Methylphenethylamine; dl-Amphetamine; dl-Benzedrine; Fenylo-izopropylaminyl; m-Methoxyamphetamine; Methamphetamine HCL

>  <cLogP>
1.4539

>  <cLogS>
-2.066

>  <H-Acceptors>
1

>  <H-Donors>
1

>  <Polar Surface Area>
26.02

>  <Druglikeness>
-1.4507

>  <Mutagenic>
none

>  <Tumorigenic>
none

>  <Reproductive Effective>
high

>  <Irritant>
none

>  <Nasty Functions>


>  <Symmetric atoms>
2

>  <Molecular Formula>
C9H13N

>  <Total Molweight>
135.209

$$$$

Actelion Java MolfileCreator 1.0

 10 11  0  0  0  0  0  0  0  0999 V2000
    0.0000   -0.0000   -0.0000 S   0  0  0  0  0  0  0  0  0  0  0  0
   -0.0119   -1.5000   -0.0000 C   0  0  0  0  0  0  0  0  0  0  0  0
   -1.3333   -2.2381   -0.0000 N   0  0  0  0  0  0  0  0  0  0  0  0
    1.2857   -2.2381   -0.0000 C   0  0  0  0  0  0  0  0  0  0  0  0
   -1.3452   -3.7381   -0.0000 C   0  0  0  0  0  0  0  0  0  0  0  0
    2.7024   -1.7619   -0.0000 N   0  0  0  0  0  0  0  0  0  0  0  0
    1.2738   -3.7381   -0.0000 C   0  0  0  0  0  0  0  0  0  0  0  0
   -0.0476   -4.4881   -0.0000 N   0  0  0  0  0  0  0  0  0  0  0  0
    3.5715   -2.9643   -0.0000 C   0  0  0  0  0  0  0  0  0  0  0  0
    2.6905   -4.1905   -0.0000 N   0  0  0  0  0  0  0  0  0  0  0  0
  1  2  2  0  0  0  0
  2  3  1  0  0  0  0
  2  4  1  0  0  0  0
  3  5  2  0  0  0  0
  4  6  1  0  0  0  0
  4  7  2  0  0  0  0
  5  8  1  0  0  0  0
  6  9  1  0  0  0  0
  7 10  1  0  0  0  0
  7  8  1  0  0  0  0
  9 10  2  0  0  0  0
M  END
>  <GENERIC_NAME>
Mercaptopurine

>  <SYNONYMS>
6 MP; 6-Mercaptopurine; Mercaptopurine Monohydrate; Mercapurin; MP

>  <cLogP>
-0.6589

>  <cLogS>
-1.843

>  <H-Acceptors>
4

>  <H-Donors>
2

>  <Polar Surface Area>
85.16

>  <Druglikeness>
0.74026

>  <Mutagenic>
none

>  <Tumorigenic>
none

>  <Reproductive Effective>
none

>  <Irritant>
none

>  <Nasty Functions>
thio-amide/urea

>  <Symmetric atoms>
0

>  <Molecular Formula>
C5H4N4S

>  <Total Molweight>
152.181

$$$$

Actelion Java MolfileCreator 1.0

 20 22  0  0  0  0  0  0  0  0999 V2000
    0.0000   -0.0000   -0.0000 N   0  0  0  0  0  0  0  0  0  0  0  0
   -1.3065    0.7533   -0.0000 C   0  0  0  0  0  0  0  0  0  0  0  0
    1.2830    0.7533   -0.0000 C   0  0  0  0  0  0  0  0  0  0  0  0
   -1.3183    2.2599   -0.0000 C   0  0  0  0  0  0  0  0  0  0  0  0
   -2.6131    0.0235   -0.0000 C   0  0  0  0  0  0  0  0  0  0  0  0
    1.2712    2.2599   -0.0000 C   0  0  0  0  0  0  0  0  0  0  0  0
   -0.0353    3.0133   -0.0000 C   0  0  0  0  0  0  0  0  0  0  0  0
   -3.9196    0.7769   -0.0000 C   0  0  0  0  0  0  0  0  0  0  0  0
   -5.2261    0.0471   -0.0000 C   0  0  0  0  0  0  0  0  0  0  0  0
   -3.9314    2.2835   -0.0000 C   0  0  0  0  0  0  0  0  0  0  0  0
   -5.2379   -1.4360   -0.0000 C   0  0  0  0  0  0  0  0  0  0  0  0
   -6.5326    0.8004   -0.0000 C   0  0  0  0  0  0  0  0  0  0  0  0
   -2.6484    3.0368   -0.0000 C   0  0  0  0  0  0  0  0  0  0  0  0
   -5.2379    3.0368   -0.0000 C   0  0  0  0  0  0  0  0  0  0  0  0
   -6.5444   -2.1658   -0.0000 C   0  0  0  0  0  0  0  0  0  0  0  0
   -7.8392    0.0706   -0.0000 C   0  0  0  0  0  0  0  0  0  0  0  0
   -2.6601    4.5434   -0.0000 C   0  0  0  0  0  0  0  0  0  0  0  0
   -5.2497    4.5434   -0.0000 C   0  0  0  0  0  0  0  0  0  0  0  0
   -7.8509   -1.4007   -0.0000 C   0  0  0  0  0  0  0  0  0  0  0  0
   -3.9667    5.3085   -0.0000 C   0  0  0  0  0  0  0  0  0  0  0  0
  1  2  1  0  0  0  0
  1  3  1  0  0  0  0
  2  4  1  0  0  0  0
  2  5  1  1  0  0  0
  3  6  1  0  0  0  0
  4  7  1  0  0  0  0
  5  8  1  0  0  0  0
  8  9  1  0  0  0  0
  8 10  1  0  0  0  0
  9 11  1  0  0  0  0
  9 12  1  0  0  0  0
 10 13  1  0  0  0  0
 10 14  1  0  0  0  0
 11 15  1  0  0  0  0
 12 16  1  0  0  0  0
 13 17  1  0  0  0  0
 14 18  1  0  0  0  0
 15 19  1  0  0  0  0
 17 20  1  0  0  0  0
  6  7  1  0  0  0  0
 16 19  1  0  0  0  0
 18 20  1  0  0  0  0
M  END
>  <GENERIC_NAME>
Perhexiline

>  <SYNONYMS>
(-)-2-(2,2-Dicyclohexylethyl)piperidine; (+)-2-(2,2-Dicyclohexylethyl)piperidine; 2-(2,2-Dicyclohexylethyl)piperidine; Perhexilene; Perhexilina [INN-Spanish]; Perhexilinum [INN-Latin]; Perhexilline

>  <cLogP>
4.8845

>  <cLogS>
-4.855

>  <H-Acceptors>
1

>  <H-Donors>
1

>  <Polar Surface Area>
12.03

>  <Druglikeness>
-1.5441

>  <Mutagenic>
none

>  <Tumorigenic>
none

>  <Reproductive Effective>
none

>  <Irritant>
none

>  <Nasty Functions>


>  <Symmetric atoms>
8

>  <Molecular Formula>
C19H35N

>  <Total Molweight>
277.494

$$$$

Actelion Java MolfileCreator 1.0

  9  6  0  0  0  0  0  0  0  0999 V2000
    0.0000   -0.0000   -0.0000 Ca  0  0  0  0  0  0  0  0  0  0  0  0
   -2.6351   -1.4116   -0.0000 O   0  0  0  0  0  0  0  0  0  0  0  0
   -2.6468    0.0941   -0.0000 C   0  0  0  0  0  0  0  0  0  0  0  0
   -1.3646    0.8470   -0.0000 O   0  0  0  0  0  0  0  0  0  0  0  0
   -3.9526    0.8470   -0.0000 C   0  0  0  0  0  0  0  0  0  0  0  0
   -2.6351   -1.4116   -0.0000 O   0  0  0  0  0  0  0  0  0  0  0  0
   -2.6468    0.0941   -0.0000 C   0  0  0  0  0  0  0  0  0  0  0  0
   -1.3646    0.8470   -0.0000 O   0  0  0  0  0  0  0  0  0  0  0  0
   -3.9526    0.8470   -0.0000 C   0  0  0  0  0  0  0  0  0  0  0  0
  2  3  2  0  0  0  0
  3  4  1  0  0  0  0
  3  5  1  0  0  0  0
  6  7  2  0  0  0  0
  7  8  1  0  0  0  0
  7  9  1  0  0  0  0
M  CHG  3   1   2   4  -1   8  -1
M  END
>  <GENERIC_NAME>
Calcium Acetate

>  <SYNONYMS>
Brown acetate of lime; calcium ethanoate; calcium(II) acetate; Gray acetate of lime; Lime acetate; Lime pyrolignite

>  <cLogP>
-0.2991

>  <cLogS>
-0.459

>  <H-Acceptors>
2

>  <H-Donors>
1

>  <Polar Surface Area>
37.3

>  <Druglikeness>
-2.2628

>  <Mutagenic>
high

>  <Tumorigenic>
none

>  <Reproductive Effective>
high

>  <Irritant>
high

>  <Nasty Functions>


>  <Symmetric atoms>
0

>  <Molecular Formula>
Ca.C2H3O2.C2H3O2

>  <Total Molweight>
158.166

$$$$

Actelion Java MolfileCreator 1.0

 25 27  0  0  0  0  0  0  0  0999 V2000
    0.0000   -0.0000   -0.0000 O   0  0  0  0  0  0  0  0  0  0  0  0
    1.2824    0.7530   -0.0000 C   0  0  0  0  0  0  0  0  0  0  0  0
   -0.0118   -1.4824   -0.0000 C   0  0  0  0  0  0  0  0  0  0  0  0
    1.2706    2.2589   -0.0000 C   0  0  0  0  0  0  0  0  0  0  0  0
    2.5648    0.0235   -0.0000 C   0  0  0  0  0  0  0  0  0  0  0  0
   -0.0353    3.0118   -0.0000 O   0  0  0  0  0  0  0  0  0  0  0  0
    2.5530    3.0118   -0.0000 C   0  0  0  0  0  0  0  0  0  0  0  0
    3.8471    0.7765   -0.0000 C   0  0  0  0  0  0  0  0  0  0  0  0
   -0.0471    4.5177   -0.0000 C   0  0  0  0  0  0  0  0  0  0  0  0
    3.8354    2.2824   -0.0000 C   0  0  0  0  0  0  0  0  0  0  0  0
    5.1766   -0.0118   -0.0000 C   0  0  0  0  0  0  0  0  0  0  0  0
    5.1648    3.0942   -0.0000 C   0  0  0  0  0  0  0  0  0  0  0  0
    6.5178    0.7647   -0.0000 N   0  0  0  0  0  0  0  0  0  0  0  0
    5.1531   -1.4941   -0.0000 C   0  0  0  0  0  0  0  0  0  0  0  0
    6.5060    2.3412   -0.0000 C   0  0  0  0  0  0  0  0  0  0  0  0
    6.4237   -2.2471   -0.0000 C   0  0  0  0  0  0  0  0  0  0  0  0
    6.4001   -3.7295   -0.0000 C   0  0  0  0  0  0  0  0  0  0  0  0
    7.7178   -1.5059   -0.0000 C   0  0  0  0  0  0  0  0  0  0  0  0
    7.6708   -4.4825   -0.0000 C   0  0  0  0  0  0  0  0  0  0  0  0
    8.9884   -2.2589   -0.0000 C   0  0  0  0  0  0  0  0  0  0  0  0
    7.6472   -5.9648   -0.0000 O   0  0  0  0  0  0  0  0  0  0  0  0
    8.9649   -3.7413   -0.0000 C   0  0  0  0  0  0  0  0  0  0  0  0
    6.3295   -6.6825   -0.0000 C   0  0  0  0  0  0  0  0  0  0  0  0
   10.2355   -4.4942   -0.0000 O   0  0  0  0  0  0  0  0  0  0  0  0
   11.5297   -3.7530   -0.0000 C   0  0  0  0  0  0  0  0  0  0  0  0
  1  2  1  0  0  0  0
  1  3  1  0  0  0  0
  2  4  2  0  0  0  0
  2  5  1  0  0  0  0
  4  6  1  0  0  0  0
  4  7  1  0  0  0  0
  5  8  2  0  0  0  0
  6  9  1  0  0  0  0
  7 10  2  0  0  0  0
  8 11  1  0  0  0  0
 10 12  1  0  0  0  0
 11 13  2  0  0  0  0
 11 14  1  0  0  0  0
 12 15  2  0  0  0  0
 14 16  1  0  0  0  0
 16 17  2  0  0  0  0
 16 18  1  0  0  0  0
 17 19  1  0  0  0  0
 18 20  2  0  0  0  0
 19 21  1  0  0  0  0
 19 22  2  0  0  0  0
 21 23  1  0  0  0  0
 22 24  1  0  0  0  0
 24 25  1  0  0  0  0
  8 10  1  0  0  0  0
 13 15  1  0  0  0  0
 20 22  1  0  0  0  0
M  END
>  <GENERIC_NAME>
Papaverine

>  <SYNONYMS>
Chlorhydrate de Papaverine; Papavarine Chlorhydrate; Papaverin; Papaverine Chlorohydrate; Papaverine Hcl; Papaverine Hydrochloride; Papaverine Monohydrochloride; Papaverinium Chloride

>  <cLogP>
3.443

>  <cLogS>
-4.234

>  <H-Acceptors>
5

>  <H-Donors>
0

>  <Polar Surface Area>
49.81

>  <Druglikeness>
-1.7454

>  <Mutagenic>
none

>  <Tumorigenic>
none

>  <Reproductive Effective>
none

>  <Irritant>
none

>  <Nasty Functions>


>  <Symmetric atoms>
0

>  <Molecular Formula>
C20H21NO4

>  <Total Molweight>
339.39

$$$$

Actelion Java MolfileCreator 1.0

  8  7  0  0  0  0  0  0  0  0999 V2000
    0.0000   -0.0000   -0.0000 Cl  0  0  0  0  0  0  0  0  0  0  0  0
   -1.3050    0.7525   -0.0000 C   0  0  0  0  0  0  0  0  0  0  0  0
   -1.3168    2.2574   -0.0000 Cl  0  0  0  0  0  0  0  0  0  0  0  0
   -2.6101    0.0235   -0.0000 C   0  0  0  0  0  0  0  0  0  0  0  0
   -3.3743    1.3286   -0.0000 F   0  0  0  0  0  0  0  0  0  0  0  0
   -1.8694   -1.2580   -0.0000 F   0  0  0  0  0  0  0  0  0  0  0  0
   -3.9151   -0.7054   -0.0000 O   0  0  0  0  0  0  0  0  0  0  0  0
   -5.2202    0.0470   -0.0000 C   0  0  0  0  0  0  0  0  0  0  0  0
  1  2  1  0  0  0  0
  2  3  1  0  0  0  0
  2  4  1  0  0  0  0
  4  5  1  0  0  0  0
  4  6  1  0  0  0  0
  4  7  1  0  0  0  0
  7  8  1  0  0  0  0
M  END
>  <GENERIC_NAME>
Methoxyflurane

>  <SYNONYMS>
Methoflurane; Methoxiflurane; Methoxifluranum; Methoxyfluoran; Methoxyfluorane; Methoxyfluran; Methoxyfluranum [INN-Latin]; Metossiflurano [Dcit]; Metoxfluran; Metoxifluran; Metoxiflurano [INN-Spanish]

>  <cLogP>
1.8198

>  <cLogS>
-1.968

>  <H-Acceptors>
1

>  <H-Donors>
0

>  <Polar Surface Area>
9.23

>  <Druglikeness>
-7.2092

>  <Mutagenic>
high

>  <Tumorigenic>
high

>  <Reproductive Effective>
high

>  <Irritant>
high

>  <Nasty Functions>


>  <Symmetric atoms>
2

>  <Molecular Formula>
C3H4OCl2F2

>  <Total Molweight>
164.966

$$$$

Actelion Java MolfileCreator 1.0

 11 11  0  0  0  0  0  0  0  0999 V2000
    0.0000   -0.0000   -0.0000 S   0  0  0  0  0  0  0  0  0  0  0  0
   -1.5182    0.0119   -0.0000 O   0  0  0  0  0  0  0  0  0  0  0  0
    1.4945    0.0119   -0.0000 O   0  0  0  0  0  0  0  0  0  0  0  0
   -0.0119    1.5182   -0.0000 N   0  0  0  0  0  0  0  0  0  0  0  0
   -0.0119   -1.4945   -0.0000 C   0  0  0  0  0  0  0  0  0  0  0  0
   -1.3284   -2.2299   -0.0000 C   0  0  0  0  0  0  0  0  0  0  0  0
    1.2810   -2.2299   -0.0000 C   0  0  0  0  0  0  0  0  0  0  0  0
   -1.3403   -3.7244   -0.0000 C   0  0  0  0  0  0  0  0  0  0  0  0
    1.2691   -3.7244   -0.0000 C   0  0  0  0  0  0  0  0  0  0  0  0
   -0.0474   -4.4597   -0.0000 C   0  0  0  0  0  0  0  0  0  0  0  0
   -0.0593   -5.9542   -0.0000 N   0  0  0  0  0  0  0  0  0  0  0  0
  1  2  2  0  0  0  0
  1  3  2  0  0  0  0
  1  4  1  0  0  0  0
  1  5  1  0  0  0  0
  5  6  2  0  0  0  0
  5  7  1  0  0  0  0
  6  8  1  0  0  0  0
  7  9  2  0  0  0  0
  8 10  2  0  0  0  0
 10 11  1  0  0  0  0
  9 10  1  0  0  0  0
M  END
>  <GENERIC_NAME>
Sulfanilamide

>  <SYNONYMS>
P-Aminobenzenesulfamide; P-Aminobenzenesulfonamide; P-Aminobenzenesulfonylamide; P-Aminobenzensulfonamide; P-Aminophenylsulfonamide; P-Anilinesulfonamide; P-Sulfamidoaniline; P-Sulfamoylaniline; PABS; Sulfanilimidic Acid; Sulfonylamide; Sulphanilamide; Su<NL>phonamide

>  <cLogP>
-0.2537

>  <cLogS>
-1.591

>  <H-Acceptors>
4

>  <H-Donors>
2

>  <Polar Surface Area>
94.56

>  <Druglikeness>
2.1586

>  <Mutagenic>
high

>  <Tumorigenic>
high

>  <Reproductive Effective>
high

>  <Irritant>
none

>  <Nasty Functions>


>  <Symmetric atoms>
3

>  <Molecular Formula>
C6H8N2O2S

>  <Total Molweight>
172.208

$$$$

Actelion Java MolfileCreator 1.0

 19 18  0  0  0  0  0  0  0  0999 V2000
    0.0000   -0.0000   -0.0000 S   0  0  0  0  0  0  0  0  0  0  0  0
   -0.7698    1.3146   -0.0000 P   0  0  0  0  0  0  0  0  0  0  0  0
    0.5211    2.0726   -0.0000 S   0  0  0  0  0  0  0  0  0  0  0  0
   -2.0844    0.5803   -0.0000 O   0  0  0  0  0  0  0  0  0  0  0  0
   -1.5396    2.6292   -0.0000 O   0  0  0  0  0  0  0  0  0  0  0  0
    1.8120    1.3383   -0.0000 C   0  0  0  0  0  0  0  0  0  0  0  0
   -3.3990    1.3383   -0.0000 C   0  0  0  0  0  0  0  0  0  0  0  0
   -0.7935    3.9438   -0.0000 C   0  0  0  0  0  0  0  0  0  0  0  0
    3.1029    2.0963   -0.0000 C   0  0  0  0  0  0  0  0  0  0  0  0
    1.8002   -0.1540   -0.0000 C   0  0  0  0  0  0  0  0  0  0  0  0
    3.0911    3.6122   -0.0000 O   0  0  0  0  0  0  0  0  0  0  0  0
    4.3938    1.3620   -0.0000 O   0  0  0  0  0  0  0  0  0  0  0  0
    3.0911   -0.9001   -0.0000 C   0  0  0  0  0  0  0  0  0  0  0  0
    5.6847    2.1199   -0.0000 C   0  0  0  0  0  0  0  0  0  0  0  0
    4.3820   -0.1303   -0.0000 O   0  0  0  0  0  0  0  0  0  0  0  0
    3.0792   -2.3923   -0.0000 O   0  0  0  0  0  0  0  0  0  0  0  0
    6.9757    1.3857   -0.0000 C   0  0  0  0  0  0  0  0  0  0  0  0
    4.3701   -3.1266   -0.0000 C   0  0  0  0  0  0  0  0  0  0  0  0
    4.3583   -4.6189   -0.0000 C   0  0  0  0  0  0  0  0  0  0  0  0
  1  2  2  0  0  0  0
  2  3  1  0  0  0  0
  2  4  1  0  0  0  0
  2  5  1  0  0  0  0
  6  3  1  6  0  0  0
  4  7  1  0  0  0  0
  5  8  1  0  0  0  0
  6  9  1  0  0  0  0
  6 10  1  0  0  0  0
  9 11  2  0  0  0  0
  9 12  1  0  0  0  0
 10 13  1  0  0  0  0
 12 14  1  0  0  0  0
 13 15  2  0  0  0  0
 13 16  1  0  0  0  0
 14 17  1  0  0  0  0
 16 18  1  0  0  0  0
 18 19  1  0  0  0  0
M  END
>  <GENERIC_NAME>
Malathion

>  <SYNONYMS>
Carbofos; Carbophos; Compound 4049; Experimental insecticide 4049; Insecticide no. 4049; Malathione; Maldison; Mercaptosuccinic acid diethyl ester; Mercaptothion; Mercaptotion; MLT; Oleophosphothion

>  <cLogP>
2.0313

>  <cLogS>
-2.531

>  <H-Acceptors>
6

>  <H-Donors>
0

>  <Polar Surface Area>
138.26

>  <Druglikeness>
-11.494

>  <Mutagenic>
high

>  <Tumorigenic>
high

>  <Reproductive Effective>
high

>  <Irritant>
high

>  <Nasty Functions>


>  <Symmetric atoms>
2

>  <Molecular Formula>
C10H19O6PS2

>  <Total Molweight>
330.361

$$$$

Actelion Java MolfileCreator 1.0

 33 34  0  0  0  0  0  0  0  0999 V2000
    0.0000   -0.0000   -0.0000 O   0  0  0  0  0  0  0  0  0  0  0  0
   -0.0119   -1.4953   -0.0000 C   0  0  0  0  0  0  0  0  0  0  0  0
   -1.3292   -2.2311   -0.0000 C   0  0  0  0  0  0  0  0  0  0  0  0
    1.2817   -2.2311   -0.0000 C   0  0  0  0  0  0  0  0  0  0  0  0
   -1.3410   -3.7264   -0.0000 C   0  0  0  0  0  0  0  0  0  0  0  0
   -2.6465   -1.4716   -0.0000 C   0  0  0  0  0  0  0  0  0  0  0  0
    1.2698   -3.7264   -0.0000 C   0  0  0  0  0  0  0  0  0  0  0  0
    2.5752   -1.4716   -0.0000 C   0  0  0  0  0  0  0  0  0  0  0  0
   -0.0475   -4.4622   -0.0000 C   0  0  0  0  0  0  0  0  0  0  0  0
   -2.6583   -4.4622   -0.0000 C   0  0  0  0  0  0  0  0  0  0  0  0
   -3.9637   -2.2074   -0.0000 C   0  0  0  0  0  0  0  0  0  0  0  0
    2.5634   -4.4622   -0.0000 C   0  0  0  0  0  0  0  0  0  0  0  0
    3.8688   -2.2074   -0.0000 C   0  0  0  0  0  0  0  0  0  0  0  0
   -0.0593   -5.9575   -0.0000 O   0  0  0  0  0  0  0  0  0  0  0  0
   -3.9756   -3.7027   -0.0000 C   0  0  0  0  0  0  0  0  0  0  0  0
    5.1624   -1.4478   -0.0000 C   0  0  0  0  0  0  0  0  0  0  0  0
    6.4559   -2.1836   -0.0000 C   0  0  0  0  0  0  0  0  0  0  0  0
    5.1505    0.0712   -0.0000 C   0  0  0  0  0  0  0  0  0  0  0  0
    7.7495   -1.4241   -0.0000 C   0  0  0  0  0  0  0  0  0  0  0  0
    9.0430   -2.1599   -0.0000 C   0  0  0  0  0  0  0  0  0  0  0  0
   10.3366   -1.4004   -0.0000 C   0  0  0  0  0  0  0  0  0  0  0  0
   11.6301   -2.1361   -0.0000 C   0  0  0  0  0  0  0  0  0  0  0  0
   10.3247    0.1187   -0.0000 C   0  0  0  0  0  0  0  0  0  0  0  0
   12.9237   -1.3766   -0.0000 C   0  0  0  0  0  0  0  0  0  0  0  0
   14.2173   -2.1124   -0.0000 C   0  0  0  0  0  0  0  0  0  0  0  0
   15.5108   -1.3529   -0.0000 C   0  0  0  0  0  0  0  0  0  0  0  0
   16.8044   -2.0887   -0.0000 C   0  0  0  0  0  0  0  0  0  0  0  0
   15.4989    0.1661   -0.0000 C   0  0  0  0  0  0  0  0  0  0  0  0
   18.0979   -1.3292   -0.0000 C   0  0  0  0  0  0  0  0  0  0  0  0
   19.3915   -2.0649   -0.0000 C   0  0  0  0  0  0  0  0  0  0  0  0
   20.6850   -1.3054   -0.0000 C   0  0  0  0  0  0  0  0  0  0  0  0
   20.6732    0.2136   -0.0000 C   0  0  0  0  0  0  0  0  0  0  0  0
   21.9786   -2.0412   -0.0000 C   0  0  0  0  0  0  0  0  0  0  0  0
  1  2  2  0  0  0  0
  2  3  1  0  0  0  0
  2  4  1  0  0  0  0
  3  5  2  0  0  0  0
  3  6  1  0  0  0  0
  4  7  2  0  0  0  0
  4  8  1  0  0  0  0
  5  9  1  0  0  0  0
  5 10  1  0  0  0  0
  6 11  2  0  0  0  0
  7 12  1  0  0  0  0
  8 13  1  0  0  0  0
  9 14  2  0  0  0  0
 10 15  2  0  0  0  0
 13 16  2  0  0  0  0
 16 17  1  0  0  0  0
 16 18  1  0  0  0  0
 17 19  1  0  0  0  0
 19 20  1  0  0  0  0
 20 21  1  0  0  0  0
 21 22  1  0  0  0  0
 21 23  1  1  0  0  0
 22 24  1  0  0  0  0
 24 25  1  0  0  0  0
 25 26  1  0  0  0  0
 26 27  1  0  0  0  0
 26 28  1  1  0  0  0
 27 29  1  0  0  0  0
 29 30  1  0  0  0  0
 30 31  1  0  0  0  0
 31 32  1  0  0  0  0
 31 33  1  0  0  0  0
  7  9  1  0  0  0  0
 11 15  1  0  0  0  0
M  END
>  <GENERIC_NAME>
Phytonadione

>  <SYNONYMS>
2-Methyl-3-phythyl-1,4-naphthochinon; 2', 3'-trans-Vitamin K1; 3-Phytylmenadione; alpha-Phylloquinone; Antihemorrhagic vitamin; Phyllochinon; Phylloquinone; Phythyl-menadion (GERMAN); Phytomenadione; Phytylmenadione; Vitamin K; Vitamin K1

>  <cLogP>
10.145

>  <cLogS>
-7.516

>  <H-Acceptors>
2

>  <H-Donors>
0

>  <Polar Surface Area>
34.14

>  <Druglikeness>
-2.1844

>  <Mutagenic>
none

>  <Tumorigenic>
none

>  <Reproductive Effective>
none

>  <Irritant>
none

>  <Nasty Functions>


>  <Symmetric atoms>
1

>  <Molecular Formula>
C31H46O2

>  <Total Molweight>
450.704

$$$$

Actelion Java MolfileCreator 1.0

 12 13  0  0  0  0  0  0  0  0999 V2000
    0.0000   -0.0000   -0.0000 N   0  0  0  0  0  0  0  0  0  0  0  0
   -0.0117    1.4915   -0.0000 N   0  0  0  0  0  0  0  0  0  0  0  0
    1.2701   -0.7224   -0.0000 C   0  0  0  0  0  0  0  0  0  0  0  0
    1.2585    2.2373   -0.0000 C   0  0  0  0  0  0  0  0  0  0  0  0
    1.2585   -2.1906   -0.0000 N   0  0  0  0  0  0  0  0  0  0  0  0
    2.5402    0.0233   -0.0000 C   0  0  0  0  0  0  0  0  0  0  0  0
    2.5286    1.5148   -0.0000 C   0  0  0  0  0  0  0  0  0  0  0  0
   -0.0350   -2.9247   -0.0000 N   0  0  0  0  0  0  0  0  0  0  0  0
    3.8569   -0.7574   -0.0000 C   0  0  0  0  0  0  0  0  0  0  0  0
    3.8453    2.3188   -0.0000 C   0  0  0  0  0  0  0  0  0  0  0  0
    5.1853    0.0117   -0.0000 C   0  0  0  0  0  0  0  0  0  0  0  0
    5.1736    1.5731   -0.0000 C   0  0  0  0  0  0  0  0  0  0  0  0
  1  2  2  0  0  0  0
  1  3  1  0  0  0  0
  2  4  1  0  0  0  0
  3  5  1  0  0  0  0
  3  6  2  0  0  0  0
  4  7  2  0  0  0  0
  5  8  1  0  0  0  0
  6  9  1  0  0  0  0
  7 10  1  0  0  0  0
  9 11  2  0  0  0  0
 10 12  2  0  0  0  0
  6  7  1  0  0  0  0
 11 12  1  0  0  0  0
M  END
>  <GENERIC_NAME>
Hydralazine

>  <SYNONYMS>
Hydralazine hydrochloride

>  <cLogP>
1.3381

>  <cLogS>
-2.295

>  <H-Acceptors>
4

>  <H-Donors>
2

>  <Polar Surface Area>
63.83

>  <Druglikeness>
-4.3224

>  <Mutagenic>
high

>  <Tumorigenic>
high

>  <Reproductive Effective>
high

>  <Irritant>
none

>  <Nasty Functions>
hydrazine

>  <Symmetric atoms>
0

>  <Molecular Formula>
C8H8N4

>  <Total Molweight>
160.18

$$$$

Actelion Java MolfileCreator 1.0

 23 24  0  0  0  0  0  0  0  0999 V2000
    0.0000   -0.0000   -0.0000 O   0  0  0  0  0  0  0  0  0  0  0  0
    1.2864   -0.7317   -0.0000 C   0  0  0  0  0  0  0  0  0  0  0  0
   -1.3100   -0.7317   -0.0000 C   0  0  0  0  0  0  0  0  0  0  0  0
    2.5728    0.0236   -0.0000 O   0  0  0  0  0  0  0  0  0  0  0  0
    1.2746   -2.2187   -0.0000 C   0  0  0  0  0  0  0  0  0  0  0  0
   -1.3218   -2.2187   -0.0000 C   0  0  0  0  0  0  0  0  0  0  0  0
   -2.6200    0.0236   -0.0000 C   0  0  0  0  0  0  0  0  0  0  0  0
    2.5610    1.5342   -0.0000 C   0  0  0  0  0  0  0  0  0  0  0  0
    2.5610   -2.9504   -0.0000 O   0  0  0  0  0  0  0  0  0  0  0  0
   -0.0354   -2.9504   -0.0000 C   0  0  0  0  0  0  0  0  0  0  0  0
   -2.6318   -2.9504   -0.0000 O   0  0  0  0  0  0  0  0  0  0  0  0
   -3.9300   -0.7081   -0.0000 O   0  0  0  0  0  0  0  0  0  0  0  0
    3.7647    2.4311   -0.0000 C   0  0  0  0  0  0  0  0  0  0  0  0
    1.3336    2.4311   -0.0000 C   0  0  0  0  0  0  0  0  0  0  0  0
   -0.0472   -4.4374   -0.0000 O   0  0  0  0  0  0  0  0  0  0  0  0
    5.1809    1.9827   -0.0000 O   0  0  0  0  0  0  0  0  0  0  0  0
    3.2927    3.8709   -0.0000 C   0  0  0  0  0  0  0  0  0  0  0  0
    1.7821    3.8709   -0.0000 O   0  0  0  0  0  0  0  0  0  0  0  0
   -0.1062    1.9827   -0.0000 C   0  0  0  0  0  0  0  0  0  0  0  0
    4.7089    4.3430   -0.0000 O   0  0  0  0  0  0  0  0  0  0  0  0
    3.2809    5.3816   -0.0000 C   0  0  0  0  0  0  0  0  0  0  0  0
   -1.2274    2.9976   -0.0000 O   0  0  0  0  0  0  0  0  0  0  0  0
    1.9709    6.1487   -0.0000 O   0  0  0  0  0  0  0  0  0  0  0  0
  1  2  1  0  0  0  0
  1  3  1  0  0  0  0
  2  4  1  6  0  0  0
  2  5  1  0  0  0  0
  3  6  1  0  0  0  0
  3  7  1  6  0  0  0
  8  4  1  1  0  0  0
  5  9  1  1  0  0  0
  5 10  1  0  0  0  0
  6 11  1  6  0  0  0
  7 12  1  0  0  0  0
  8 13  1  0  0  0  0
  8 14  1  0  0  0  0
 10 15  1  6  0  0  0
 13 16  1  6  0  0  0
 13 17  1  0  0  0  0
 14 18  1  0  0  0  0
 14 19  1  6  0  0  0
 17 20  1  6  0  0  0
 17 21  1  0  0  0  0
 19 22  1  0  0  0  0
 21 23  1  0  0  0  0
  6 10  1  0  0  0  0
 17 18  1  0  0  0  0
M  END
>  <GENERIC_NAME>
Lactulose

>  <SYNONYMS>


>  <cLogP>
-4.6102

>  <cLogS>
0.682

>  <H-Acceptors>
11

>  <H-Donors>
8

>  <Polar Surface Area>
189.53

>  <Druglikeness>
-4.3761

>  <Mutagenic>
none

>  <Tumorigenic>
none

>  <Reproductive Effective>
none

>  <Irritant>
none

>  <Nasty Functions>


>  <Symmetric atoms>
0

>  <Molecular Formula>
C12H22O11

>  <Total Molweight>
342.296

$$$$

Actelion Java MolfileCreator 1.0

 12 12  0  0  0  0  0  0  0  0999 V2000
    0.0000   -0.0000   -0.0000 N   0  0  0  0  0  0  0  0  0  0  0  0
   -0.0119    1.5184   -0.0000 C   0  0  0  0  0  0  0  0  0  0  0  0
   -1.3167   -0.7355   -0.0000 C   0  0  0  0  0  0  0  0  0  0  0  0
    1.2930   -0.7355   -0.0000 C   0  0  0  0  0  0  0  0  0  0  0  0
    1.2811    2.2775   -0.0000 C   0  0  0  0  0  0  0  0  0  0  0  0
   -1.3286   -2.2301   -0.0000 C   0  0  0  0  0  0  0  0  0  0  0  0
    2.5741    3.0367   -0.0000 C   0  0  0  0  0  0  0  0  0  0  0  0
   -0.0356   -2.9774   -0.0000 C   0  0  0  0  0  0  0  0  0  0  0  0
   -2.6453   -2.9774   -0.0000 C   0  0  0  0  0  0  0  0  0  0  0  0
   -0.0474   -4.4720   -0.0000 C   0  0  0  0  0  0  0  0  0  0  0  0
   -2.6571   -4.4720   -0.0000 C   0  0  0  0  0  0  0  0  0  0  0  0
   -1.3642   -5.2075   -0.0000 C   0  0  0  0  0  0  0  0  0  0  0  0
  1  2  1  0  0  0  0
  1  3  1  0  0  0  0
  1  4  1  0  0  0  0
  2  5  1  0  0  0  0
  3  6  1  0  0  0  0
  5  7  3  0  0  0  0
  6  8  2  0  0  0  0
  6  9  1  0  0  0  0
  8 10  1  0  0  0  0
  9 11  2  0  0  0  0
 10 12  2  0  0  0  0
 11 12  1  0  0  0  0
M  END
>  <GENERIC_NAME>
Pargyline

>  <SYNONYMS>
Benzyl-methyl-2-propinylamin; Methylbenzylpropynylamine; Methylbenzylpropynylamine hydrochloride; N-Benzyl-N-methyl-2-propyn-1-amine; N-Benzyl-N-methyl-2-propynylamine; N-Benzyl-N-methyl-2-propynylamine hydrochloride; N-Methyl-N-2-propynylbenzylamine; Par<NL>gyline; Pargylamine; Pargylin; Pargyline chloride; Pargyline hydrochloride

>  <cLogP>
1.3097

>  <cLogS>
-1.754

>  <H-Acceptors>
1

>  <H-Donors>
0

>  <Polar Surface Area>
3.24

>  <Druglikeness>
3.7874

>  <Mutagenic>
none

>  <Tumorigenic>
none

>  <Reproductive Effective>
high

>  <Irritant>
none

>  <Nasty Functions>


>  <Symmetric atoms>
2

>  <Molecular Formula>
C11H13N

>  <Total Molweight>
159.231

$$$$

Actelion Java MolfileCreator 1.0

 11 11  0  0  0  0  0  0  0  0999 V2000
    0.0000   -0.0000   -0.0000 S   0  0  0  0  0  0  0  0  0  0  0  0
    1.2957   -0.7370   -0.0000 C   0  0  0  0  0  0  0  0  0  0  0  0
    2.5914    0.0238   -0.0000 N   0  0  0  0  0  0  0  0  0  0  0  0
    1.2838   -2.2348   -0.0000 C   0  0  0  0  0  0  0  0  0  0  0  0
   -0.0357   -2.9718   -0.0000 C   0  0  0  0  0  0  0  0  0  0  0  0
    2.5795   -2.9718   -0.0000 C   0  0  0  0  0  0  0  0  0  0  0  0
   -0.0475   -4.4696   -0.0000 C   0  0  0  0  0  0  0  0  0  0  0  0
    2.5677   -4.4696   -0.0000 C   0  0  0  0  0  0  0  0  0  0  0  0
    1.2482   -5.2066   -0.0000 N   0  0  0  0  0  0  0  0  0  0  0  0
   -1.3670   -5.2066   -0.0000 C   0  0  0  0  0  0  0  0  0  0  0  0
   -1.3789   -6.7044   -0.0000 C   0  0  0  0  0  0  0  0  0  0  0  0
  1  2  2  0  0  0  0
  2  3  1  0  0  0  0
  2  4  1  0  0  0  0
  4  5  2  0  0  0  0
  4  6  1  0  0  0  0
  5  7  1  0  0  0  0
  6  8  2  0  0  0  0
  7  9  2  0  0  0  0
  7 10  1  0  0  0  0
 10 11  1  0  0  0  0
  8  9  1  0  0  0  0
M  END
>  <GENERIC_NAME>
Ethionamide

>  <SYNONYMS>
Ethinamide; Ethionamid prothionamid; Ethionamidum [INN-Latin]; Ethioniamide; Ethylisothiamide; Ethyonomide; Etionamid; Etionamida [INN-Spanish]; Etionamide [DCIT]; Etioniamid

>  <cLogP>
1.2574

>  <cLogS>
-1.367

>  <H-Acceptors>
2

>  <H-Donors>
1

>  <Polar Surface Area>
71

>  <Druglikeness>
-2.2775

>  <Mutagenic>
none

>  <Tumorigenic>
none

>  <Reproductive Effective>
none

>  <Irritant>
none

>  <Nasty Functions>
thio-amide/urea

>  <Symmetric atoms>
0

>  <Molecular Formula>
C8H10N2S

>  <Total Molweight>
166.247

$$$$

Actelion Java MolfileCreator 1.0

 13 12  0  0  0  0  0  0  0  0999 V2000
    0.0000   -0.0000   -0.0000 O   0  0  0  0  0  0  0  0  0  0  0  0
   -0.0119    1.5201   -0.0000 C   0  0  0  0  0  0  0  0  0  0  0  0
   -1.3300    2.2801   -0.0000 O   0  0  0  0  0  0  0  0  0  0  0  0
    1.2825    2.2801   -0.0000 C   0  0  0  0  0  0  0  0  0  0  0  0
    2.5770    1.5438   -0.0000 C   0  0  0  0  0  0  0  0  0  0  0  0
    3.8714    2.3038   -0.0000 C   0  0  0  0  0  0  0  0  0  0  0  0
    5.1658    1.5676   -0.0000 C   0  0  0  0  0  0  0  0  0  0  0  0
    6.4602    2.3276   -0.0000 C   0  0  0  0  0  0  0  0  0  0  0  0
    7.7547    1.5913   -0.0000 C   0  0  0  0  0  0  0  0  0  0  0  0
    9.0491    2.3513   -0.0000 C   0  0  0  0  0  0  0  0  0  0  0  0
   10.3435    1.6151   -0.0000 C   0  0  0  0  0  0  0  0  0  0  0  0
   10.3316    0.1188   -0.0000 O   0  0  0  0  0  0  0  0  0  0  0  0
   11.6379    2.3751   -0.0000 O   0  0  0  0  0  0  0  0  0  0  0  0
  1  2  2  0  0  0  0
  2  3  1  0  0  0  0
  2  4  1  0  0  0  0
  4  5  1  0  0  0  0
  5  6  1  0  0  0  0
  6  7  1  0  0  0  0
  7  8  1  0  0  0  0
  8  9  1  0  0  0  0
  9 10  1  0  0  0  0
 10 11  1  0  0  0  0
 11 12  2  0  0  0  0
 11 13  1  0  0  0  0
M  END
>  <GENERIC_NAME>
Azelaic Acid

>  <SYNONYMS>
Anchoic acid; Azalaic Acid; Azelainic acid; Heptanedicarboxylic acid; Lepargylic acid; n-Nonanedioic acid; Nonanedioic acid

>  <cLogP>
1.6054

>  <cLogS>
-1.824

>  <H-Acceptors>
4

>  <H-Donors>
2

>  <Polar Surface Area>
74.6

>  <Druglikeness>
-12.715

>  <Mutagenic>
none

>  <Tumorigenic>
none

>  <Reproductive Effective>
none

>  <Irritant>
high

>  <Nasty Functions>


>  <Symmetric atoms>
6

>  <Molecular Formula>
C9H16O4

>  <Total Molweight>
188.222

$$$$

Actelion Java MolfileCreator 1.0

  7  7  0  0  0  0  0  0  0  0999 V2000
    0.0000   -0.0000   -0.0000 S   0  0  0  0  0  0  0  0  0  0  0  0
   -1.4318    0.4694   -0.0000 C   0  0  0  0  0  0  0  0  0  0  0  0
   -2.6524   -0.3990   -0.0000 N   0  0  0  0  0  0  0  0  0  0  0  0
   -1.9012    1.9012   -0.0000 N   0  0  0  0  0  0  0  0  0  0  0  0
   -3.8729    0.4929   -0.0000 C   0  0  0  0  0  0  0  0  0  0  0  0
   -2.6641   -1.8778   -0.0000 C   0  0  0  0  0  0  0  0  0  0  0  0
   -3.4035    1.9130   -0.0000 C   0  0  0  0  0  0  0  0  0  0  0  0
  1  2  2  0  0  0  0
  2  3  1  0  0  0  0
  2  4  1  0  0  0  0
  3  5  1  0  0  0  0
  3  6  1  0  0  0  0
  4  7  1  0  0  0  0
  5  7  2  0  0  0  0
M  END
>  <GENERIC_NAME>
Methimazole

>  <SYNONYMS>
Mercaptazole; Mercasolyl; Mercazole; Mercazolyl; Merkazolil; Metazolo; Methamazole; Methiamazole; Methimazol; Metothyrin; Metothyrine; Thiamazol; Thiamazole; Thimazole; Thymidazol; Thymidazole

>  <cLogP>
-0.1957

>  <cLogS>
-1.174

>  <H-Acceptors>
2

>  <H-Donors>
1

>  <Polar Surface Area>
47.36

>  <Druglikeness>
0.68107

>  <Mutagenic>
none

>  <Tumorigenic>
none

>  <Reproductive Effective>
none

>  <Irritant>
none

>  <Nasty Functions>
thio-amide/urea

>  <Symmetric atoms>
0

>  <Molecular Formula>
C4H6N2S

>  <Total Molweight>
114.172

$$$$

Actelion Java MolfileCreator 1.0

 14 14  0  0  0  0  0  0  0  0999 V2000
    0.0000   -0.0000   -0.0000 Cl  0  0  0  0  0  0  0  0  0  0  0  0
   -1.3088   -0.7310   -0.0000 C   0  0  0  0  0  0  0  0  0  0  0  0
   -2.6176    0.0236   -0.0000 C   0  0  0  0  0  0  0  0  0  0  0  0
   -1.3206   -2.2167   -0.0000 C   0  0  0  0  0  0  0  0  0  0  0  0
   -3.9264   -0.7075   -0.0000 C   0  0  0  0  0  0  0  0  0  0  0  0
   -2.6294    1.5328   -0.0000 C   0  0  0  0  0  0  0  0  0  0  0  0
   -2.6294   -2.9595   -0.0000 C   0  0  0  0  0  0  0  0  0  0  0  0
   -5.2352    0.0472   -0.0000 Cl  0  0  0  0  0  0  0  0  0  0  0  0
   -3.9382   -2.1931   -0.0000 C   0  0  0  0  0  0  0  0  0  0  0  0
   -1.3442    2.2874   -0.0000 N   0  0  0  0  0  0  0  0  0  0  0  0
   -1.3560    3.7967   -0.0000 N   0  0  0  0  0  0  0  0  0  0  0  0
   -0.0707    4.5513   -0.0000 C   0  0  0  0  0  0  0  0  0  0  0  0
   -0.0825    6.0606   -0.0000 N   0  0  0  0  0  0  0  0  0  0  0  0
    1.2145    3.8203   -0.0000 N   0  0  0  0  0  0  0  0  0  0  0  0
  1  2  1  0  0  0  0
  2  3  2  0  0  0  0
  2  4  1  0  0  0  0
  3  5  1  0  0  0  0
  3  6  1  0  0  0  0
  4  7  2  0  0  0  0
  5  8  1  0  0  0  0
  5  9  2  0  0  0  0
  6 10  2  3  0  0  0
 10 11  1  0  0  0  0
 11 12  2  0  0  0  0
 12 13  1  0  0  0  0
 12 14  1  0  0  0  0
  7  9  1  0  0  0  0
M  END
>  <GENERIC_NAME>
Guanabenz

>  <SYNONYMS>


>  <cLogP>
3.0853

>  <cLogS>
-4.462

>  <H-Acceptors>
4

>  <H-Donors>
2

>  <Polar Surface Area>
76.76

>  <Druglikeness>
1.5916

>  <Mutagenic>
none

>  <Tumorigenic>
none

>  <Reproductive Effective>
low

>  <Irritant>
none

>  <Nasty Functions>
dimethylene-hydrazine; imine/hydrazone of aldehyde

>  <Symmetric atoms>
4

>  <Molecular Formula>
C8H8N4Cl2

>  <Total Molweight>
231.086

$$$$

Actelion Java MolfileCreator 1.0

 10  9  0  0  0  0  0  0  0  0999 V2000
    0.0000   -0.0000   -0.0000 Cl  0  0  0  0  0  0  0  0  0  0  0  0
   -0.0119   -1.4934   -0.0000 C   0  0  0  0  0  0  0  0  0  0  0  0
    1.2800   -2.2282   -0.0000 O   0  0  0  0  0  0  0  0  0  0  0  0
   -1.3275   -2.2282   -0.0000 C   0  0  0  0  0  0  0  0  0  0  0  0
    2.5720   -1.4697   -0.0000 C   0  0  0  0  0  0  0  0  0  0  0  0
   -2.6431   -2.9631   -0.0000 F   0  0  0  0  0  0  0  0  0  0  0  0
   -2.0860   -0.9126   -0.0000 F   0  0  0  0  0  0  0  0  0  0  0  0
   -0.5926   -3.5201   -0.0000 F   0  0  0  0  0  0  0  0  0  0  0  0
    3.8639   -2.2045   -0.0000 F   0  0  0  0  0  0  0  0  0  0  0  0
    2.5601    0.0474   -0.0000 F   0  0  0  0  0  0  0  0  0  0  0  0
  2  1  1  6  0  0  0
  2  3  1  0  0  0  0
  2  4  1  0  0  0  0
  3  5  1  0  0  0  0
  4  6  1  0  0  0  0
  4  7  1  0  0  0  0
  4  8  1  0  0  0  0
  5  9  1  0  0  0  0
  5 10  1  0  0  0  0
M  END
>  <GENERIC_NAME>
Isoflurane

>  <SYNONYMS>


>  <cLogP>
1.4972

>  <cLogS>
-2.488

>  <H-Acceptors>
1

>  <H-Donors>
0

>  <Polar Surface Area>
9.23

>  <Druglikeness>
-12.081

>  <Mutagenic>
low

>  <Tumorigenic>
high

>  <Reproductive Effective>
low

>  <Irritant>
none

>  <Nasty Functions>


>  <Symmetric atoms>
3

>  <Molecular Formula>
C3H2OClF5

>  <Total Molweight>
184.491

$$$$

Actelion Java MolfileCreator 1.0

 13  9  0  0  0  0  0  0  0  0999 V2000
    0.0000   -0.0000   -0.0000 Ga  0  0  0  0  0  0  0  0  0  0  0  0
   -5.2701   -0.6588   -0.0000 O   0  0  0  0  0  0  0  0  0  0  0  0
   -5.2819    0.8470   -0.0000 N   0  0  0  0  0  0  0  0  0  0  0  0
   -3.9997    1.5999   -0.0000 O   0  0  0  0  0  0  0  0  0  0  0  0
   -6.5877    1.5999   -0.0000 O   0  0  0  0  0  0  0  0  0  0  0  0
   -5.2701   -0.6588   -0.0000 O   0  0  0  0  0  0  0  0  0  0  0  0
   -5.2819    0.8470   -0.0000 N   0  0  0  0  0  0  0  0  0  0  0  0
   -3.9997    1.5999   -0.0000 O   0  0  0  0  0  0  0  0  0  0  0  0
   -6.5877    1.5999   -0.0000 O   0  0  0  0  0  0  0  0  0  0  0  0
   -5.2701   -0.6588   -0.0000 O   0  0  0  0  0  0  0  0  0  0  0  0
   -5.2819    0.8470   -0.0000 N   0  0  0  0  0  0  0  0  0  0  0  0
   -3.9997    1.5999   -0.0000 O   0  0  0  0  0  0  0  0  0  0  0  0
   -6.5877    1.5999   -0.0000 O   0  0  0  0  0  0  0  0  0  0  0  0
  2  3  2  0  0  0  0
  3  4  1  0  0  0  0
  3  5  1  0  0  0  0
  6  7  2  0  0  0  0
  7  8  1  0  0  0  0
  7  9  1  0  0  0  0
 10 11  2  0  0  0  0
 11 12  1  0  0  0  0
 11 13  1  0  0  0  0
M  CHG 10   1   3   3   1   4  -1   5  -1   7   1   8  -1   9  -1  11   1  12  -1  13  -1
M  END
>  <GENERIC_NAME>
Gallium nitrate

>  <SYNONYMS>


>  <cLogP>
-0.8585

>  <cLogS>
-1.108

>  <H-Acceptors>
4

>  <H-Donors>
0

>  <Polar Surface Area>
62.89

>  <Druglikeness>
-9.919

>  <Mutagenic>
none

>  <Tumorigenic>
none

>  <Reproductive Effective>
none

>  <Irritant>
none

>  <Nasty Functions>


>  <Symmetric atoms>
1

>  <Molecular Formula>
Ga.NO3.NO3.NO3

>  <Total Molweight>
255.735

$$$$

Actelion Java MolfileCreator 1.0

 12 13  0  0  0  0  0  0  0  0999 V2000
    0.0000   -0.0000   -0.0000 N   0  0  0  0  0  0  0  0  0  0  0  0
   -0.3835    0.9889   -0.0000 C   0  0  0  0  0  0  0  0  0  0  0  0
    0.9889   -0.1413   -0.0000 C   0  0  0  0  0  0  0  0  0  0  0  0
   -0.9082    1.8971   -0.0000 C   0  0  0  0  0  0  0  0  0  0  0  0
    1.3724    2.0384   -0.0000 C   0  0  0  0  0  0  0  0  0  0  0  0
   -1.2109    0.3633   -0.0000 C   0  0  0  0  0  0  0  0  0  0  0  0
    1.6348    3.0475   -0.0000 C   0  0  0  0  0  0  0  0  0  0  0  0
   -1.5742    2.7246   -0.0000 C   0  0  0  0  0  0  0  0  0  0  0  0
   -1.8971    1.5540   -0.0000 C   0  0  0  0  0  0  0  0  0  0  0  0
    0.8678    4.0567   -0.0000 C   0  0  0  0  0  0  0  0  0  0  0  0
    3.2292    1.2715   -0.0000 C   0  0  0  0  0  0  0  0  0  0  0  0
    3.4916    2.2806   -0.0000 C   0  0  0  0  0  0  0  0  0  0  0  0
  1  2  1  0  0  0  0
  1  3  1  0  0  0  0
  2  4  1  0  0  0  0
  2  5  1  0  0  0  0
  2  6  1  0  0  0  0
  4  7  1  0  0  0  0
  4  8  1  0  0  0  0
  4  9  1  0  0  0  0
  5 10  1  0  0  0  0
  5 11  1  0  0  0  0
  7 12  1  0  0  0  0
  7 10  1  0  0  0  0
 11 12  1  0  0  0  0
M  END
>  <GENERIC_NAME>
Mecamylamine

>  <SYNONYMS>
2-Methylamino-2,3,3-trimethylnorbornane; 2-Methylaminoisocamphane; 3-Methylaminoisocamphane; 3-Methylaminoisocamphane hydrochloride; Mecamilamina; Mecamylamine Hydrochloride

>  <cLogP>
1.9558

>  <cLogS>
-2.325

>  <H-Acceptors>
1

>  <H-Donors>
1

>  <Polar Surface Area>
12.03

>  <Druglikeness>
-0.72213

>  <Mutagenic>
none

>  <Tumorigenic>
none

>  <Reproductive Effective>
none

>  <Irritant>
none

>  <Nasty Functions>


>  <Symmetric atoms>
1

>  <Molecular Formula>
C11H21N

>  <Total Molweight>
167.295

$$$$

Actelion Java MolfileCreator 1.0

 17 18  0  0  0  0  0  0  0  0999 V2000
    0.0000   -0.0000   -0.0000 O   0  0  0  0  0  0  0  0  0  0  0  0
    1.2933   -0.7357   -0.0000 C   0  0  0  0  0  0  0  0  0  0  0  0
    1.2815   -2.2307   -0.0000 C   0  0  0  0  0  0  0  0  0  0  0  0
    2.5867    0.0237   -0.0000 C   0  0  0  0  0  0  0  0  0  0  0  0
   -0.0356   -2.9782   -0.0000 C   0  0  0  0  0  0  0  0  0  0  0  0
    2.5748   -2.9782   -0.0000 C   0  0  0  0  0  0  0  0  0  0  0  0
    2.5748    1.5425   -0.0000 C   0  0  0  0  0  0  0  0  0  0  0  0
    3.8800   -0.7119   -0.0000 C   0  0  0  0  0  0  0  0  0  0  0  0
   -1.3527   -2.2070   -0.0000 O   0  0  0  0  0  0  0  0  0  0  0  0
   -0.0475   -4.4733   -0.0000 C   0  0  0  0  0  0  0  0  0  0  0  0
    2.5629   -4.4733   -0.0000 C   0  0  0  0  0  0  0  0  0  0  0  0
    3.8681    2.3019   -0.0000 C   0  0  0  0  0  0  0  0  0  0  0  0
    5.1733    0.0475   -0.0000 C   0  0  0  0  0  0  0  0  0  0  0  0
    1.2459   -5.2089   -0.0000 C   0  0  0  0  0  0  0  0  0  0  0  0
    5.1615    1.5662   -0.0000 C   0  0  0  0  0  0  0  0  0  0  0  0
    1.2340   -6.7040   -0.0000 O   0  0  0  0  0  0  0  0  0  0  0  0
    2.5273   -7.4396   -0.0000 C   0  0  0  0  0  0  0  0  0  0  0  0
  1  2  2  0  0  0  0
  2  3  1  0  0  0  0
  2  4  1  0  0  0  0
  3  5  2  0  0  0  0
  3  6  1  0  0  0  0
  4  7  2  0  0  0  0
  4  8  1  0  0  0  0
  5  9  1  0  0  0  0
  5 10  1  0  0  0  0
  6 11  2  0  0  0  0
  7 12  1  0  0  0  0
  8 13  2  0  0  0  0
 10 14  2  0  0  0  0
 12 15  2  0  0  0  0
 14 16  1  0  0  0  0
 16 17  1  0  0  0  0
 11 14  1  0  0  0  0
 13 15  1  0  0  0  0
M  END
>  <GENERIC_NAME>
Oxybenzone

>  <SYNONYMS>
(2-Hydroxy-4-methoxyphenyl)phenylmethanone; 2-Benzoyl-5-methoxyphenol; 2-Hydroxy-4-methoxybenzophenone; 4-Methoxy-2-hydroxybenzophenone; 4-Methoxy-2-hydroxybenzophenone butyric acid; Oxibenzona [inn-spanish]; Oxybenzonum [inn-latin]

>  <cLogP>
2.3739

>  <cLogS>
-3.438

>  <H-Acceptors>
3

>  <H-Donors>
1

>  <Polar Surface Area>
46.53

>  <Druglikeness>
-0.94415

>  <Mutagenic>
high

>  <Tumorigenic>
high

>  <Reproductive Effective>
high

>  <Irritant>
none

>  <Nasty Functions>


>  <Symmetric atoms>
2

>  <Molecular Formula>
C14H12O3

>  <Total Molweight>
228.246

$$$$

Actelion Java MolfileCreator 1.0

 11 11  0  0  0  0  0  0  0  0999 V2000
    0.0000   -0.0000   -0.0000 N   0  0  0  0  0  0  0  0  0  0  0  0
   -1.3163   -0.7352   -0.0000 C   0  0  0  0  0  0  0  0  0  0  0  0
   -2.6326   -1.4705   -0.0000 C   0  0  0  0  0  0  0  0  0  0  0  0
   -2.0871    0.5811   -0.0000 C   0  0  0  0  0  0  0  0  0  0  0  0
   -0.5811   -2.0278   -0.0000 C   0  0  0  0  0  0  0  0  0  0  0  0
   -2.6444   -2.9646   -0.0000 C   0  0  0  0  0  0  0  0  0  0  0  0
   -1.3519   -3.6998   -0.0000 C   0  0  0  0  0  0  0  0  0  0  0  0
   -3.9607   -3.6998   -0.0000 C   0  0  0  0  0  0  0  0  0  0  0  0
   -1.3637   -5.1940   -0.0000 C   0  0  0  0  0  0  0  0  0  0  0  0
   -3.9726   -5.1940   -0.0000 C   0  0  0  0  0  0  0  0  0  0  0  0
   -2.6800   -5.9292   -0.0000 C   0  0  0  0  0  0  0  0  0  0  0  0
  1  2  1  0  0  0  0
  2  3  1  0  0  0  0
  2  4  1  0  0  0  0
  2  5  1  0  0  0  0
  3  6  1  0  0  0  0
  6  7  2  0  0  0  0
  6  8  1  0  0  0  0
  7  9  1  0  0  0  0
  8 10  2  0  0  0  0
  9 11  2  0  0  0  0
 10 11  1  0  0  0  0
M  END
>  <GENERIC_NAME>
Phentermine

>  <SYNONYMS>
(alpha,alpha)-Dimethylphenethylamine

>  <cLogP>
1.8345

>  <cLogS>
-2.175

>  <H-Acceptors>
1

>  <H-Donors>
1

>  <Polar Surface Area>
26.02

>  <Druglikeness>
-1.0446

>  <Mutagenic>
high

>  <Tumorigenic>
none

>  <Reproductive Effective>
none

>  <Irritant>
none

>  <Nasty Functions>


>  <Symmetric atoms>
3

>  <Molecular Formula>
C10H15N

>  <Total Molweight>
149.236

$$$$

Actelion Java MolfileCreator 1.0

 12 12  0  0  0  0  0  0  0  0999 V2000
    0.0000   -0.0000   -0.0000 O   0  0  0  0  0  0  0  0  0  0  0  0
    1.2908   -0.7460   -0.0000 C   0  0  0  0  0  0  0  0  0  0  0  0
    1.2789   -2.2381   -0.0000 C   0  0  0  0  0  0  0  0  0  0  0  0
   -0.0355   -2.9841   -0.0000 C   0  0  0  0  0  0  0  0  0  0  0  0
    2.5697   -2.9841   -0.0000 C   0  0  0  0  0  0  0  0  0  0  0  0
   -1.3500   -2.2144   -0.0000 O   0  0  0  0  0  0  0  0  0  0  0  0
   -0.0474   -4.4762   -0.0000 C   0  0  0  0  0  0  0  0  0  0  0  0
    2.5578   -4.4762   -0.0000 C   0  0  0  0  0  0  0  0  0  0  0  0
    3.8604   -2.2144   -0.0000 C   0  0  0  0  0  0  0  0  0  0  0  0
    1.2434   -5.2222   -0.0000 N   0  0  0  0  0  0  0  0  0  0  0  0
   -1.3618   -5.2222   -0.0000 C   0  0  0  0  0  0  0  0  0  0  0  0
    5.1512   -2.9605   -0.0000 O   0  0  0  0  0  0  0  0  0  0  0  0
  1  2  2  0  0  0  0
  2  3  1  0  0  0  0
  3  4  2  0  0  0  0
  3  5  1  0  0  0  0
  4  6  1  0  0  0  0
  4  7  1  0  0  0  0
  5  8  2  0  0  0  0
  5  9  1  0  0  0  0
  7 10  2  0  0  0  0
  7 11  1  0  0  0  0
  9 12  1  0  0  0  0
  8 10  1  0  0  0  0
M  END
>  <GENERIC_NAME>
Pyridoxal

>  <SYNONYMS>
PL; Pyridoxaldehyde; Vitamin B6 hydrochloride

>  <cLogP>
0.0469

>  <cLogS>
-1.101

>  <H-Acceptors>
4

>  <H-Donors>
2

>  <Polar Surface Area>
70.42

>  <Druglikeness>
-3.9662

>  <Mutagenic>
none

>  <Tumorigenic>
none

>  <Reproductive Effective>
none

>  <Irritant>
none

>  <Nasty Functions>


>  <Symmetric atoms>
0

>  <Molecular Formula>
C8H9NO3

>  <Total Molweight>
167.163

$$$$

Actelion Java MolfileCreator 1.0

 16 16  0  0  0  0  0  0  0  0999 V2000
    0.0000   -0.0000   -0.0000 Br  0  0  0  0  0  0  0  0  0  0  0  0
    1.2847    0.7543   -0.0000 C   0  0  0  0  0  0  0  0  0  0  0  0
    1.2730    2.2630   -0.0000 C   0  0  0  0  0  0  0  0  0  0  0  0
    2.5577    3.0174   -0.0000 C   0  0  0  0  0  0  0  0  0  0  0  0
    3.8424    2.2866   -0.0000 O   0  0  0  0  0  0  0  0  0  0  0  0
    2.5459    4.5261   -0.0000 N   0  0  0  0  0  0  0  0  0  0  0  0
    3.8306    5.2804   -0.0000 C   0  0  0  0  0  0  0  0  0  0  0  0
    1.2376    5.2804   -0.0000 C   0  0  0  0  0  0  0  0  0  0  0  0
    3.8189    6.7891   -0.0000 C   0  0  0  0  0  0  0  0  0  0  0  0
    1.2258    6.7891   -0.0000 C   0  0  0  0  0  0  0  0  0  0  0  0
    2.5105    7.5434   -0.0000 N   0  0  0  0  0  0  0  0  0  0  0  0
    2.4988    9.0521   -0.0000 C   0  0  0  0  0  0  0  0  0  0  0  0
    1.1904    9.8065   -0.0000 O   0  0  0  0  0  0  0  0  0  0  0  0
    3.7835    9.8065   -0.0000 C   0  0  0  0  0  0  0  0  0  0  0  0
    3.7717   11.3151   -0.0000 C   0  0  0  0  0  0  0  0  0  0  0  0
    5.0565   12.0695   -0.0000 Br  0  0  0  0  0  0  0  0  0  0  0  0
  1  2  1  0  0  0  0
  2  3  1  0  0  0  0
  3  4  1  0  0  0  0
  4  5  2  0  0  0  0
  4  6  1  0  0  0  0
  6  7  1  0  0  0  0
  6  8  1  0  0  0  0
  7  9  1  0  0  0  0
  8 10  1  0  0  0  0
  9 11  1  0  0  0  0
 11 12  1  0  0  0  0
 12 13  2  0  0  0  0
 12 14  1  0  0  0  0
 14 15  1  0  0  0  0
 15 16  1  0  0  0  0
 10 11  1  0  0  0  0
M  END
>  <GENERIC_NAME>
Pipobroman

>  <SYNONYMS>


>  <cLogP>
1.6856

>  <cLogS>
-1.566

>  <H-Acceptors>
4

>  <H-Donors>
0

>  <Polar Surface Area>
40.62

>  <Druglikeness>
-2.478

>  <Mutagenic>
high

>  <Tumorigenic>
high

>  <Reproductive Effective>
high

>  <Irritant>
none

>  <Nasty Functions>
prim. alkyl-bromide/iodide

>  <Symmetric atoms>
9

>  <Molecular Formula>
C10H16N2O2Br2

>  <Total Molweight>
356.057

$$$$

Actelion Java MolfileCreator 1.0

  6  5  0  0  0  0  0  0  0  0999 V2000
    0.0000   -0.0000   -0.0000 S   0  0  0  0  0  0  0  0  0  0  0  0
   -0.0118    1.5092   -0.0000 C   0  0  0  0  0  0  0  0  0  0  0  0
    1.2734    2.2756   -0.0000 C   0  0  0  0  0  0  0  0  0  0  0  0
   -1.3206    2.2756   -0.0000 C   0  0  0  0  0  0  0  0  0  0  0  0
    2.5586    1.5446   -0.0000 S   0  0  0  0  0  0  0  0  0  0  0  0
   -2.6294    1.5446   -0.0000 O   0  0  0  0  0  0  0  0  0  0  0  0
  2  1  1  1  0  0  0
  2  3  1  0  0  0  0
  2  4  1  0  0  0  0
  3  5  1  0  0  0  0
  4  6  1  0  0  0  0
M  END
>  <GENERIC_NAME>
Dimercaprol

>  <SYNONYMS>
2,3-Dimercapro; 2,3-Dimercaptopropanol; BAL; British Anti-Lewisite

>  <cLogP>
0.3225

>  <cLogS>
-1.987

>  <H-Acceptors>
1

>  <H-Donors>
1

>  <Polar Surface Area>
97.83

>  <Druglikeness>
-7.3542

>  <Mutagenic>
none

>  <Tumorigenic>
none

>  <Reproductive Effective>
none

>  <Irritant>
none

>  <Nasty Functions>


>  <Symmetric atoms>
0

>  <Molecular Formula>
C3H8OS2

>  <Total Molweight>
124.228

$$$$

Actelion Java MolfileCreator 1.0

 12 12  0  0  0  0  0  0  0  0999 V2000
    0.0000   -0.0000   -0.0000 I   0  0  0  0  0  0  0  0  0  0  0  0
   -0.0119   -1.4945   -0.0000 C   0  0  0  0  0  0  0  0  0  0  0  0
   -1.3285   -2.2300   -0.0000 C   0  0  0  0  0  0  0  0  0  0  0  0
    1.2810   -2.2300   -0.0000 C   0  0  0  0  0  0  0  0  0  0  0  0
   -1.3404   -3.7245   -0.0000 C   0  0  0  0  0  0  0  0  0  0  0  0
    1.2692   -3.7245   -0.0000 C   0  0  0  0  0  0  0  0  0  0  0  0
   -0.0474   -4.4599   -0.0000 C   0  0  0  0  0  0  0  0  0  0  0  0
   -2.6570   -4.4599   -0.0000 C   0  0  0  0  0  0  0  0  0  0  0  0
   -2.6688   -5.9545   -0.0000 N   0  0  0  0  0  0  0  0  0  0  0  0
   -3.9855   -6.6899   -0.0000 C   0  0  0  0  0  0  0  0  0  0  0  0
   -3.9973   -8.1844   -0.0000 N   0  0  0  0  0  0  0  0  0  0  0  0
   -5.3021   -5.9308   -0.0000 N   0  0  0  0  0  0  0  0  0  0  0  0
  1  2  1  0  0  0  0
  2  3  2  0  0  0  0
  2  4  1  0  0  0  0
  3  5  1  0  0  0  0
  4  6  2  0  0  0  0
  5  7  2  0  0  0  0
  5  8  1  0  0  0  0
  8  9  1  0  0  0  0
  9 10  2  0  0  0  0
 10 11  1  0  0  0  0
 10 12  1  0  0  0  0
  6  7  1  0  0  0  0
M  END
>  <GENERIC_NAME>
Iobenguane

>  <SYNONYMS>
123 Meta-Iodobenzlyguanidine Sulfate; 123I-Metaiodobenzylguanidine; I-123 MIBG ; Metaiodobenzylguanidine; MIBG

>  <cLogP>
0.6622

>  <cLogS>
-3.193

>  <H-Acceptors>
3

>  <H-Donors>
2

>  <Polar Surface Area>
64.4

>  <Druglikeness>
0.81668

>  <Mutagenic>
none

>  <Tumorigenic>
none

>  <Reproductive Effective>
none

>  <Irritant>
none

>  <Nasty Functions>


>  <Symmetric atoms>
1

>  <Molecular Formula>
C8H10N3I

>  <Total Molweight>
275.088

$$$$

Actelion Java MolfileCreator 1.0

 21 23  0  0  0  0  0  0  0  0999 V2000
    0.0000   -0.0000   -0.0000 Cl  0  0  0  0  0  0  0  0  0  0  0  0
    1.3715    0.5583   -0.0000 C   0  0  0  0  0  0  0  0  0  0  0  0
    1.5778    2.0390   -0.0000 C   0  0  0  0  0  0  0  0  0  0  0  0
    2.5245   -0.3520   -0.0000 C   0  0  0  0  0  0  0  0  0  0  0  0
    0.4005    2.9736   -0.0000 C   0  0  0  0  0  0  0  0  0  0  0  0
    2.9493    2.5973   -0.0000 C   0  0  0  0  0  0  0  0  0  0  0  0
    3.8960    0.2063   -0.0000 C   0  0  0  0  0  0  0  0  0  0  0  0
    0.7161    4.4300   -0.0000 N   0  0  0  0  0  0  0  0  0  0  0  0
   -0.9467    2.3425   -0.0000 C   0  0  0  0  0  0  0  0  0  0  0  0
    4.1023    1.6871   -0.0000 C   0  0  0  0  0  0  0  0  0  0  0  0
   -0.2185    5.6073   -0.0000 C   0  0  0  0  0  0  0  0  0  0  0  0
   -2.2939    2.9979   -0.0000 C   0  0  0  0  0  0  0  0  0  0  0  0
   -0.8253    0.8132   -0.0000 C   0  0  0  0  0  0  0  0  0  0  0  0
    0.4127    6.9546   -0.0000 O   0  0  0  0  0  0  0  0  0  0  0  0
   -1.7113    5.6195   -0.0000 C   0  0  0  0  0  0  0  0  0  0  0  0
   -2.6338    4.4543   -0.0000 N   0  0  0  0  0  0  0  0  0  0  0  0
   -3.5926    2.1604   -0.0000 C   0  0  0  0  0  0  0  0  0  0  0  0
   -2.1119   -0.0607   -0.0000 C   0  0  0  0  0  0  0  0  0  0  0  0
   -2.3667    6.9667   -0.0000 O   0  0  0  0  0  0  0  0  0  0  0  0
   -3.4955    0.6311   -0.0000 C   0  0  0  0  0  0  0  0  0  0  0  0
   -2.0026   -1.5293   -0.0000 Cl  0  0  0  0  0  0  0  0  0  0  0  0
  1  2  1  0  0  0  0
  2  3  2  0  0  0  0
  2  4  1  0  0  0  0
  3  5  1  0  0  0  0
  3  6  1  0  0  0  0
  4  7  2  0  0  0  0
  5  8  2  0  0  0  0
  5  9  1  0  0  0  0
  6 10  2  0  0  0  0
  8 11  1  0  0  0  0
  9 12  2  0  0  0  0
  9 13  1  0  0  0  0
 11 14  1  6  0  0  0
 11 15  1  0  0  0  0
 12 16  1  0  0  0  0
 12 17  1  0  0  0  0
 13 18  2  0  0  0  0
 15 19  2  0  0  0  0
 17 20  2  0  0  0  0
 18 21  1  0  0  0  0
  7 10  1  0  0  0  0
 15 16  1  0  0  0  0
 18 20  1  0  0  0  0
M  END
>  <GENERIC_NAME>
Lorazepam

>  <SYNONYMS>
(+/-)-Lorazepam; O-Chlorooxazepam; O-Chloroxazepam

>  <cLogP>
2.8818

>  <cLogS>
-5.246

>  <H-Acceptors>
4

>  <H-Donors>
2

>  <Polar Surface Area>
61.69

>  <Druglikeness>
2.2844

>  <Mutagenic>
none

>  <Tumorigenic>
none

>  <Reproductive Effective>
high

>  <Irritant>
none

>  <Nasty Functions>


>  <Symmetric atoms>
0

>  <Molecular Formula>
C15H10N2O2Cl2

>  <Total Molweight>
321.162

$$$$

Actelion Java MolfileCreator 1.0

 29 31  0  0  0  0  0  0  0  0999 V2000
    0.0000   -0.0000   -0.0000 O   0  0  0  0  0  0  0  0  0  0  0  0
   -1.2889    0.7661   -0.0000 C   0  0  0  0  0  0  0  0  0  0  0  0
   -1.2889    2.2617   -0.0000 O   0  0  0  0  0  0  0  0  0  0  0  0
   -2.5900    0.0486   -0.0000 C   0  0  0  0  0  0  0  0  0  0  0  0
   -2.5779    3.0278   -0.0000 C   0  0  0  0  0  0  0  0  0  0  0  0
   -3.8790    0.8147   -0.0000 C   0  0  0  0  0  0  0  0  0  0  0  0
   -3.8790    2.3104   -0.0000 C   0  0  0  0  0  0  0  0  0  0  0  0
   -2.5779    4.5235   -0.0000 C   0  0  0  0  0  0  0  0  0  0  0  0
   -5.1801    0.0973   -0.0000 O   0  0  0  0  0  0  0  0  0  0  0  0
   -3.8668    5.2895   -0.0000 C   0  0  0  0  0  0  0  0  0  0  0  0
   -3.8668    6.7852   -0.0000 C   0  0  0  0  0  0  0  0  0  0  0  0
   -5.2044    7.5877   -0.0000 C   0  0  0  0  0  0  0  0  0  0  0  0
   -2.5414    7.5634   -0.0000 C   0  0  0  0  0  0  0  0  0  0  0  0
   -5.2166    9.0834   -0.0000 C   0  0  0  0  0  0  0  0  0  0  0  0
   -6.5055    6.8581   -0.0000 C   0  0  0  0  0  0  0  0  0  0  0  0
   -2.5536    9.1199   -0.0000 C   0  0  0  0  0  0  0  0  0  0  0  0
   -1.2768    6.8338   -0.0000 C   0  0  0  0  0  0  0  0  0  0  0  0
   -3.9033    9.8859   -0.0000 C   0  0  0  0  0  0  0  0  0  0  0  0
   -6.5177    9.8373   -0.0000 C   0  0  0  0  0  0  0  0  0  0  0  0
   -6.5177    5.3868   -0.0000 O   0  0  0  0  0  0  0  0  0  0  0  0
   -7.8066    7.6121   -0.0000 C   0  0  0  0  0  0  0  0  0  0  0  0
   -7.8188    9.1077   -0.0000 C   0  0  0  0  0  0  0  0  0  0  0  0
   -7.8188    4.6572   -0.0000 C   0  0  0  0  0  0  0  0  0  0  0  0
   -9.1199    9.8616   -0.0000 C   0  0  0  0  0  0  0  0  0  0  0  0
   -9.1199    5.4111   -0.0000 O   0  0  0  0  0  0  0  0  0  0  0  0
   -7.8309    3.1859   -0.0000 C   0  0  0  0  0  0  0  0  0  0  0  0
   -9.1320    2.4563   -0.0000 C   0  0  0  0  0  0  0  0  0  0  0  0
   -6.5542    2.4563   -0.0000 C   0  0  0  0  0  0  0  0  0  0  0  0
   -9.1442    0.9849   -0.0000 C   0  0  0  0  0  0  0  0  0  0  0  0
  1  2  2  0  0  0  0
  2  3  1  0  0  0  0
  2  4  1  0  0  0  0
  3  5  1  0  0  0  0
  4  6  1  0  0  0  0
  5  7  1  0  0  0  0
  5  8  1  1  0  0  0
  6  9  1  6  0  0  0
  8 10  1  0  0  0  0
 11 10  1  6  0  0  0
 11 12  1  0  0  0  0
 11 13  1  0  0  0  0
 12 14  1  1  0  0  0
 12 15  1  0  0  0  0
 13 16  1  0  0  0  0
 13 17  1  6  0  0  0
 14 18  1  0  0  0  0
 14 19  2  0  0  0  0
 15 20  1  1  0  0  0
 15 21  1  0  0  0  0
 19 22  1  0  0  0  0
 20 23  1  0  0  0  0
 22 24  1  1  0  0  0
 23 25  2  0  0  0  0
 23 26  1  0  0  0  0
 26 27  1  0  0  0  0
 26 28  1  1  0  0  0
 27 29  1  0  0  0  0
  6  7  1  0  0  0  0
 16 18  2  0  0  0  0
 21 22  1  0  0  0  0
M  END
>  <GENERIC_NAME>
Lovastatin

>  <SYNONYMS>
6 alpha-Methylcompactin; Lovastatina [Spanish]; Lovastatine [French]; Lovastatinum [Latin]

>  <cLogP>
3.895

>  <cLogS>
-4.573

>  <H-Acceptors>
5

>  <H-Donors>
1

>  <Polar Surface Area>
72.83

>  <Druglikeness>
1.6515

>  <Mutagenic>
none

>  <Tumorigenic>
none

>  <Reproductive Effective>
none

>  <Irritant>
none

>  <Nasty Functions>


>  <Symmetric atoms>
0

>  <Molecular Formula>
C24H36O5

>  <Total Molweight>
404.545

$$$$

Actelion Java MolfileCreator 1.0

 21 25  0  0  0  0  0  0  0  0999 V2000
    0.0000   -0.0000   -0.0000 O   0  0  0  0  0  0  0  0  0  0  0  0
    1.2821    0.7692   -0.0000 C   0  0  0  0  0  0  0  0  0  0  0  0
    1.2660    2.2115   -0.0000 C   0  0  0  0  0  0  0  0  0  0  0  0
    2.5000    0.0641   -0.0000 C   0  0  0  0  0  0  0  0  0  0  0  0
    0.2885    3.7340   -0.0000 O   0  0  0  0  0  0  0  0  0  0  0  0
    2.4840    2.9487   -0.0000 C   0  0  0  0  0  0  0  0  0  0  0  0
    3.7180    0.8013   -0.0000 C   0  0  0  0  0  0  0  0  0  0  0  0
    1.2340    5.0962   -0.0000 C   0  0  0  0  0  0  0  0  0  0  0  0
    2.4680    4.3910   -0.0000 C   0  0  0  0  0  0  0  0  0  0  0  0
    3.7019    2.2436   -0.0000 C   0  0  0  0  0  0  0  0  0  0  0  0
    3.3013    4.0064   -0.0000 C   0  0  0  0  0  0  0  0  0  0  0  0
    1.2180    6.5385   -0.0000 C   0  0  0  0  0  0  0  0  0  0  0  0
    3.6859    5.1282   -0.0000 C   0  0  0  0  0  0  0  0  0  0  0  0
    4.9199    2.9808   -0.0000 C   0  0  0  0  0  0  0  0  0  0  0  0
    5.3205    4.0225   -0.0000 C   0  0  0  0  0  0  0  0  0  0  0  0
   -0.0962    7.3077   -0.0000 O   0  0  0  0  0  0  0  0  0  0  0  0
    2.4359    7.2757   -0.0000 C   0  0  0  0  0  0  0  0  0  0  0  0
    3.6699    6.5705   -0.0000 C   0  0  0  0  0  0  0  0  0  0  0  0
    4.9039    4.4231   -0.0000 C   0  0  0  0  0  0  0  0  0  0  0  0
    6.1378    2.2756   -0.0000 N   0  0  0  0  0  0  0  0  0  0  0  0
    7.1475    1.1859   -0.0000 C   0  0  0  0  0  0  0  0  0  0  0  0
  1  2  2  0  0  0  0
  2  3  1  0  0  0  0
  2  4  1  0  0  0  0
  3  5  1  6  0  0  0
  3  6  1  0  0  0  0
  4  7  1  0  0  0  0
  5  8  1  0  0  0  0
  6  9  1  0  0  0  0
  6 10  1  0  0  0  0
  6 11  1  1  0  0  0
  8 12  2  0  0  0  0
  9 13  2  0  0  0  0
 10 14  1  0  0  0  0
 11 15  1  0  0  0  0
 12 16  1  0  0  0  0
 12 17  1  0  0  0  0
 13 18  1  0  0  0  0
 13 19  1  0  0  0  0
 14 20  1  1  0  0  0
 20 21  1  0  0  0  0
 10  7  1  6  0  0  0
  8  9  1  0  0  0  0
 14 19  1  0  0  0  0
 15 20  1  0  0  0  0
 17 18  2  0  0  0  0
M  END
>  <GENERIC_NAME>
Hydromorphone

>  <SYNONYMS>
Dihydromorfinon [Czech]; Dihydromorphinone; Hidromorfona [INN-Spanish]; Hydromorfona [Spanish]; Hydromorphon; Hydromorphone HCL; Hydromorphonum [INN-Latin]

>  <cLogP>
1.6758

>  <cLogS>
-2.826

>  <H-Acceptors>
4

>  <H-Donors>
1

>  <Polar Surface Area>
49.77

>  <Druglikeness>
4.2337

>  <Mutagenic>
none

>  <Tumorigenic>
none

>  <Reproductive Effective>
none

>  <Irritant>
none

>  <Nasty Functions>


>  <Symmetric atoms>
0

>  <Molecular Formula>
C17H19NO3

>  <Total Molweight>
285.342

$$$$

Actelion Java MolfileCreator 1.0

 10 11  0  0  0  0  0  0  0  0999 V2000
    0.0000   -0.0000   -0.0000 O   0  0  0  0  0  0  0  0  0  0  0  0
   -0.0119   -1.5011   -0.0000 C   0  0  0  0  0  0  0  0  0  0  0  0
   -1.3343   -2.2397   -0.0000 N   0  0  0  0  0  0  0  0  0  0  0  0
    1.2866   -2.2397   -0.0000 C   0  0  0  0  0  0  0  0  0  0  0  0
   -1.3462   -3.7408   -0.0000 C   0  0  0  0  0  0  0  0  0  0  0  0
    1.2747   -3.7408   -0.0000 C   0  0  0  0  0  0  0  0  0  0  0  0
    2.7043   -1.7632   -0.0000 C   0  0  0  0  0  0  0  0  0  0  0  0
   -0.0477   -4.4794   -0.0000 N   0  0  0  0  0  0  0  0  0  0  0  0
    2.6924   -4.1935   -0.0000 N   0  0  0  0  0  0  0  0  0  0  0  0
    3.5740   -2.9664   -0.0000 N   0  0  0  0  0  0  0  0  0  0  0  0
  1  2  2  0  0  0  0
  2  3  1  0  0  0  0
  2  4  1  0  0  0  0
  3  5  2  0  0  0  0
  4  6  1  0  0  0  0
  4  7  2  0  0  0  0
  5  8  1  0  0  0  0
  6  9  1  0  0  0  0
  7 10  1  0  0  0  0
  6  8  2  0  0  0  0
  9 10  1  0  0  0  0
M  END
>  <GENERIC_NAME>
Allopurinol

>  <SYNONYMS>
Allopurinol Sodium; Allopurinolum [INN-Latin]; Alopurinol [INN-Spanish]

>  <cLogP>
-3.0509

>  <cLogS>
-1.543

>  <H-Acceptors>
5

>  <H-Donors>
2

>  <Polar Surface Area>
65.85

>  <Druglikeness>
2.9002

>  <Mutagenic>
none

>  <Tumorigenic>
none

>  <Reproductive Effective>
none

>  <Irritant>
none

>  <Nasty Functions>
twice activated DB

>  <Symmetric atoms>
0

>  <Molecular Formula>
C5H4N4O

>  <Total Molweight>
136.114

$$$$

Actelion Java MolfileCreator 1.0

 34 38  0  0  0  0  0  0  0  0999 V2000
    0.0000   -0.0000   -0.0000 S   0  0  0  0  0  0  0  0  0  0  0  0
    0.8595    1.2127   -0.0000 C   0  0  0  0  0  0  0  0  0  0  0  0
   -1.4247    0.4710   -0.0000 C   0  0  0  0  0  0  0  0  0  0  0  0
    2.3430    1.2245   -0.0000 C   0  0  0  0  0  0  0  0  0  0  0  0
   -0.0235    2.4255   -0.0000 C   0  0  0  0  0  0  0  0  0  0  0  0
   -1.4364    1.9780   -0.0000 C   0  0  0  0  0  0  0  0  0  0  0  0
   -2.7316   -0.2590   -0.0000 C   0  0  0  0  0  0  0  0  0  0  0  0
    3.0848    2.5314   -0.0000 C   0  0  0  0  0  0  0  0  0  0  0  0
    3.0848   -0.0589   -0.0000 C   0  0  0  0  0  0  0  0  0  0  0  0
    0.4239    3.8619   -0.0000 C   0  0  0  0  0  0  0  0  0  0  0  0
   -2.7434    2.7316   -0.0000 C   0  0  0  0  0  0  0  0  0  0  0  0
   -4.0385    0.4945   -0.0000 C   0  0  0  0  0  0  0  0  0  0  0  0
    4.5683    2.5432   -0.0000 C   0  0  0  0  0  0  0  0  0  0  0  0
    4.5683   -0.0471   -0.0000 C   0  0  0  0  0  0  0  0  0  0  0  0
    1.8721    4.1798   -0.0000 O   0  0  0  0  0  0  0  0  0  0  0  0
   -0.5887    4.9922   -0.0000 C   0  0  0  0  0  0  0  0  0  0  0  0
   -4.0503    2.0016   -0.0000 C   0  0  0  0  0  0  0  0  0  0  0  0
   -5.3454   -0.2355   -0.0000 O   0  0  0  0  0  0  0  0  0  0  0  0
    5.3101    1.2598   -0.0000 C   0  0  0  0  0  0  0  0  0  0  0  0
   -2.0605    4.6978   -0.0000 C   0  0  0  0  0  0  0  0  0  0  0  0
   -0.1413    6.4286   -0.0000 C   0  0  0  0  0  0  0  0  0  0  0  0
    6.7936    1.2716   -0.0000 O   0  0  0  0  0  0  0  0  0  0  0  0
   -3.0730    5.8282   -0.0000 C   0  0  0  0  0  0  0  0  0  0  0  0
   -1.1539    7.5589   -0.0000 C   0  0  0  0  0  0  0  0  0  0  0  0
   -2.6256    7.2646   -0.0000 C   0  0  0  0  0  0  0  0  0  0  0  0
   -3.6382    8.3949   -0.0000 O   0  0  0  0  0  0  0  0  0  0  0  0
   -3.1908    9.8313   -0.0000 C   0  0  0  0  0  0  0  0  0  0  0  0
   -4.2033   10.9616   -0.0000 C   0  0  0  0  0  0  0  0  0  0  0  0
   -3.7559   12.3981   -0.0000 N   0  0  0  0  0  0  0  0  0  0  0  0
   -2.3077   12.7160   -0.0000 C   0  0  0  0  0  0  0  0  0  0  0  0
   -4.7685   13.5284   -0.0000 C   0  0  0  0  0  0  0  0  0  0  0  0
   -1.8603   14.1524   -0.0000 C   0  0  0  0  0  0  0  0  0  0  0  0
   -4.3211   14.9648   -0.0000 C   0  0  0  0  0  0  0  0  0  0  0  0
   -2.8729   15.2827   -0.0000 C   0  0  0  0  0  0  0  0  0  0  0  0
  1  2  1  0  0  0  0
  1  3  1  0  0  0  0
  2  4  1  0  0  0  0
  2  5  2  0  0  0  0
  3  6  2  0  0  0  0
  3  7  1  0  0  0  0
  4  8  2  0  0  0  0
  4  9  1  0  0  0  0
  5 10  1  0  0  0  0
  6 11  1  0  0  0  0
  7 12  2  0  0  0  0
  8 13  1  0  0  0  0
  9 14  2  0  0  0  0
 10 15  2  0  0  0  0
 10 16  1  0  0  0  0
 11 17  2  0  0  0  0
 12 18  1  0  0  0  0
 13 19  2  0  0  0  0
 16 20  2  0  0  0  0
 16 21  1  0  0  0  0
 19 22  1  0  0  0  0
 20 23  1  0  0  0  0
 21 24  2  0  0  0  0
 23 25  2  0  0  0  0
 25 26  1  0  0  0  0
 26 27  1  0  0  0  0
 27 28  1  0  0  0  0
 28 29  1  0  0  0  0
 29 30  1  0  0  0  0
 29 31  1  0  0  0  0
 30 32  1  0  0  0  0
 31 33  1  0  0  0  0
 32 34  1  0  0  0  0
  5  6  1  0  0  0  0
 12 17  1  0  0  0  0
 14 19  1  0  0  0  0
 24 25  1  0  0  0  0
 33 34  1  0  0  0  0
M  END
>  <GENERIC_NAME>
Raloxifene

>  <SYNONYMS>
LY-139481; RAL; Raloxifene Hcl; Raloxifene Hydrochloride; Raloxifeno [Spanish]; Raloxifenum [Latin]

>  <cLogP>
5.5983

>  <cLogS>
-6.867

>  <H-Acceptors>
5

>  <H-Donors>
2

>  <Polar Surface Area>
98.24

>  <Druglikeness>
3.8547

>  <Mutagenic>
none

>  <Tumorigenic>
none

>  <Reproductive Effective>
high

>  <Irritant>
none

>  <Nasty Functions>


>  <Symmetric atoms>
6

>  <Molecular Formula>
C28H27NO4S

>  <Total Molweight>
473.591

$$$$

Actelion Java MolfileCreator 1.0

 26 28  0  0  0  0  0  0  0  0999 V2000
    0.0000   -0.0000   -0.0000 S   0  0  0  0  0  0  0  0  0  0  0  0
    1.4859    0.0118   -0.0000 O   0  0  0  0  0  0  0  0  0  0  0  0
   -1.5094    0.0118   -0.0000 O   0  0  0  0  0  0  0  0  0  0  0  0
   -0.0118   -1.4859   -0.0000 N   0  0  0  0  0  0  0  0  0  0  0  0
   -0.0118    1.5094   -0.0000 C   0  0  0  0  0  0  0  0  0  0  0  0
    1.2736    2.2642   -0.0000 C   0  0  0  0  0  0  0  0  0  0  0  0
   -1.3208    2.2642   -0.0000 C   0  0  0  0  0  0  0  0  0  0  0  0
    1.2618    3.7736   -0.0000 C   0  0  0  0  0  0  0  0  0  0  0  0
   -1.3326    3.7736   -0.0000 C   0  0  0  0  0  0  0  0  0  0  0  0
   -0.0472    4.5283   -0.0000 C   0  0  0  0  0  0  0  0  0  0  0  0
   -0.0590    6.0378   -0.0000 N   0  0  0  0  0  0  0  0  0  0  0  0
   -1.2854    6.9340   -0.0000 N   0  0  0  0  0  0  0  0  0  0  0  0
    1.1439    6.9340   -0.0000 C   0  0  0  0  0  0  0  0  0  0  0  0
   -0.8373    8.3727   -0.0000 C   0  0  0  0  0  0  0  0  0  0  0  0
    2.5590    6.4859   -0.0000 C   0  0  0  0  0  0  0  0  0  0  0  0
    0.6722    8.3727   -0.0000 C   0  0  0  0  0  0  0  0  0  0  0  0
   -1.7335    9.5991   -0.0000 C   0  0  0  0  0  0  0  0  0  0  0  0
    2.8538    5.0354   -0.0000 C   0  0  0  0  0  0  0  0  0  0  0  0
    3.6557    7.5000   -0.0000 C   0  0  0  0  0  0  0  0  0  0  0  0
   -2.9599    8.7264   -0.0000 F   0  0  0  0  0  0  0  0  0  0  0  0
   -0.5307   10.4953   -0.0000 F   0  0  0  0  0  0  0  0  0  0  0  0
   -2.6297   10.8255   -0.0000 F   0  0  0  0  0  0  0  0  0  0  0  0
    4.2689    4.5873   -0.0000 C   0  0  0  0  0  0  0  0  0  0  0  0
    5.0708    7.0519   -0.0000 C   0  0  0  0  0  0  0  0  0  0  0  0
    5.3656    5.6014   -0.0000 C   0  0  0  0  0  0  0  0  0  0  0  0
    6.7807    5.1533   -0.0000 C   0  0  0  0  0  0  0  0  0  0  0  0
  1  2  2  0  0  0  0
  1  3  2  0  0  0  0
  1  4  1  0  0  0  0
  1  5  1  0  0  0  0
  5  6  2  0  0  0  0
  5  7  1  0  0  0  0
  6  8  1  0  0  0  0
  7  9  2  0  0  0  0
  8 10  2  0  0  0  0
 10 11  1  0  0  0  0
 11 12  1  0  0  0  0
 11 13  1  0  0  0  0
 12 14  2  0  0  0  0
 13 15  1  0  0  0  0
 13 16  2  0  0  0  0
 14 17  1  0  0  0  0
 15 18  2  0  0  0  0
 15 19  1  0  0  0  0
 17 20  1  0  0  0  0
 17 21  1  0  0  0  0
 17 22  1  0  0  0  0
 18 23  1  0  0  0  0
 19 24  2  0  0  0  0
 23 25  2  0  0  0  0
 25 26  1  0  0  0  0
  9 10  1  0  0  0  0
 14 16  1  0  0  0  0
 24 25  1  0  0  0  0
M  END
>  <GENERIC_NAME>
Celecoxib

>  <SYNONYMS>
Celocoxib

>  <cLogP>
2.5888

>  <cLogS>
-4.174

>  <H-Acceptors>
5

>  <H-Donors>
1

>  <Polar Surface Area>
86.36

>  <Druglikeness>
-8.1085

>  <Mutagenic>
none

>  <Tumorigenic>
none

>  <Reproductive Effective>
none

>  <Irritant>
none

>  <Nasty Functions>


>  <Symmetric atoms>
7

>  <Molecular Formula>
C17H14N3O2F3S

>  <Total Molweight>
381.377

$$$$

Actelion Java MolfileCreator 1.0

 29 31  0  0  0  0  0  0  0  0999 V2000
    0.0000   -0.0000   -0.0000 O   0  0  0  0  0  0  0  0  0  0  0  0
    1.2834   -0.7300   -0.0000 C   0  0  0  0  0  0  0  0  0  0  0  0
   -0.0118    1.5071   -0.0000 C   0  0  0  0  0  0  0  0  0  0  0  0
    1.2716   -2.2135   -0.0000 C   0  0  0  0  0  0  0  0  0  0  0  0
    2.5667    0.0235   -0.0000 C   0  0  0  0  0  0  0  0  0  0  0  0
   -1.3187    2.2606   -0.0000 C   0  0  0  0  0  0  0  0  0  0  0  0
   -0.0353   -2.9435   -0.0000 O   0  0  0  0  0  0  0  0  0  0  0  0
    2.5549   -2.9435   -0.0000 C   0  0  0  0  0  0  0  0  0  0  0  0
    3.8501   -0.7064   -0.0000 C   0  0  0  0  0  0  0  0  0  0  0  0
   -1.3305    3.7676   -0.0000 O   0  0  0  0  0  0  0  0  0  0  0  0
   -1.3422   -2.1899   -0.0000 C   0  0  0  0  0  0  0  0  0  0  0  0
    3.8383   -2.1899   -0.0000 C   0  0  0  0  0  0  0  0  0  0  0  0
    5.1805    0.1060   -0.0000 N   0  0  0  0  0  0  0  0  0  0  0  0
   -2.6374    4.5212   -0.0000 C   0  0  0  0  0  0  0  0  0  0  0  0
   -2.6491   -2.9199   -0.0000 C   0  0  0  0  0  0  0  0  0  0  0  0
    5.1687   -2.9788   -0.0000 C   0  0  0  0  0  0  0  0  0  0  0  0
    6.5227   -0.6476   -0.0000 C   0  0  0  0  0  0  0  0  0  0  0  0
   -3.9560   -2.1664   -0.0000 O   0  0  0  0  0  0  0  0  0  0  0  0
    6.5110   -2.2017   -0.0000 N   0  0  0  0  0  0  0  0  0  0  0  0
    5.1452   -4.4623   -0.0000 N   0  0  0  0  0  0  0  0  0  0  0  0
   -5.2629   -2.8964   -0.0000 C   0  0  0  0  0  0  0  0  0  0  0  0
    6.4168   -5.2158   -0.0000 C   0  0  0  0  0  0  0  0  0  0  0  0
    6.3932   -6.6993   -0.0000 C   0  0  0  0  0  0  0  0  0  0  0  0
    7.7119   -4.4741   -0.0000 C   0  0  0  0  0  0  0  0  0  0  0  0
    7.6648   -7.4529   -0.0000 C   0  0  0  0  0  0  0  0  0  0  0  0
    8.9835   -5.2276   -0.0000 C   0  0  0  0  0  0  0  0  0  0  0  0
    7.6413   -8.9364   -0.0000 C   0  0  0  0  0  0  0  0  0  0  0  0
    8.9599   -6.7111   -0.0000 C   0  0  0  0  0  0  0  0  0  0  0  0
    7.6177  -10.4199   -0.0000 C   0  0  0  0  0  0  0  0  0  0  0  0
  1  2  1  0  0  0  0
  1  3  1  0  0  0  0
  2  4  2  0  0  0  0
  2  5  1  0  0  0  0
  3  6  1  0  0  0  0
  4  7  1  0  0  0  0
  4  8  1  0  0  0  0
  5  9  2  0  0  0  0
  6 10  1  0  0  0  0
  7 11  1  0  0  0  0
  8 12  2  0  0  0  0
  9 13  1  0  0  0  0
 10 14  1  0  0  0  0
 11 15  1  0  0  0  0
 12 16  1  0  0  0  0
 13 17  2  0  0  0  0
 15 18  1  0  0  0  0
 16 19  2  0  0  0  0
 16 20  1  0  0  0  0
 18 21  1  0  0  0  0
 20 22  1  0  0  0  0
 22 23  2  0  0  0  0
 22 24  1  0  0  0  0
 23 25  1  0  0  0  0
 24 26  2  0  0  0  0
 25 27  1  0  0  0  0
 25 28  2  0  0  0  0
 27 29  3  0  0  0  0
  9 12  1  0  0  0  0
 17 19  1  0  0  0  0
 26 28  1  0  0  0  0
M  END
>  <GENERIC_NAME>
Erlotinib

>  <SYNONYMS>
OSI-774

>  <cLogP>
3.0713

>  <cLogS>
-3.527

>  <H-Acceptors>
7

>  <H-Donors>
1

>  <Polar Surface Area>
74.73

>  <Druglikeness>
-5.9718

>  <Mutagenic>
none

>  <Tumorigenic>
none

>  <Reproductive Effective>
none

>  <Irritant>
none

>  <Nasty Functions>


>  <Symmetric atoms>
0

>  <Molecular Formula>
C22H23N3O4

>  <Total Molweight>
393.442

$$$$

Actelion Java MolfileCreator 1.0

 34 38  0  0  0  0  0  0  0  0999 V2000
    0.0000   -0.0000   -0.0000 F   0  0  0  0  0  0  0  0  0  0  0  0
    0.9991   -1.1181   -0.0000 C   0  0  0  0  0  0  0  0  0  0  0  0
    0.5234   -2.5455   -0.0000 C   0  0  0  0  0  0  0  0  0  0  0  0
    2.4622   -0.7969   -0.0000 C   0  0  0  0  0  0  0  0  0  0  0  0
    1.5225   -3.6635   -0.0000 C   0  0  0  0  0  0  0  0  0  0  0  0
    3.4613   -1.9150   -0.0000 C   0  0  0  0  0  0  0  0  0  0  0  0
    2.9856   -3.3424   -0.0000 C   0  0  0  0  0  0  0  0  0  0  0  0
    3.9847   -4.4605   -0.0000 C   0  0  0  0  0  0  0  0  0  0  0  0
    3.5089   -5.8878   -0.0000 N   0  0  0  0  0  0  0  0  0  0  0  0
    4.3772   -7.0892   -0.0000 C   0  0  0  0  0  0  0  0  0  0  0  0
    2.0697   -6.3398   -0.0000 C   0  0  0  0  0  0  0  0  0  0  0  0
    3.4851   -8.2906   -0.0000 N   0  0  0  0  0  0  0  0  0  0  0  0
    5.8759   -7.0773   -0.0000 N   0  0  0  0  0  0  0  0  0  0  0  0
    2.0578   -7.8386   -0.0000 C   0  0  0  0  0  0  0  0  0  0  0  0
    0.7494   -5.5786   -0.0000 C   0  0  0  0  0  0  0  0  0  0  0  0
    6.6134   -8.3738   -0.0000 C   0  0  0  0  0  0  0  0  0  0  0  0
    0.7375   -8.5760   -0.0000 C   0  0  0  0  0  0  0  0  0  0  0  0
   -0.5709   -6.3160   -0.0000 C   0  0  0  0  0  0  0  0  0  0  0  0
    5.8522   -9.6703   -0.0000 C   0  0  0  0  0  0  0  0  0  0  0  0
    8.1121   -8.3619   -0.0000 C   0  0  0  0  0  0  0  0  0  0  0  0
   -0.5828   -7.8148   -0.0000 C   0  0  0  0  0  0  0  0  0  0  0  0
    6.5896  -10.9669   -0.0000 C   0  0  0  0  0  0  0  0  0  0  0  0
    8.8496   -9.6584   -0.0000 C   0  0  0  0  0  0  0  0  0  0  0  0
    8.0884  -10.9550   -0.0000 N   0  0  0  0  0  0  0  0  0  0  0  0
    8.8258  -12.2515   -0.0000 C   0  0  0  0  0  0  0  0  0  0  0  0
   10.3245  -12.2396   -0.0000 C   0  0  0  0  0  0  0  0  0  0  0  0
   11.0620  -13.5361   -0.0000 C   0  0  0  0  0  0  0  0  0  0  0  0
   12.5607  -13.5242   -0.0000 C   0  0  0  0  0  0  0  0  0  0  0  0
   10.3008  -14.8326   -0.0000 C   0  0  0  0  0  0  0  0  0  0  0  0
   13.2982  -14.8207   -0.0000 C   0  0  0  0  0  0  0  0  0  0  0  0
   11.0382  -16.1291   -0.0000 C   0  0  0  0  0  0  0  0  0  0  0  0
   12.5369  -16.1172   -0.0000 C   0  0  0  0  0  0  0  0  0  0  0  0
   13.2744  -17.4137   -0.0000 O   0  0  0  0  0  0  0  0  0  0  0  0
   14.7731  -17.4018   -0.0000 C   0  0  0  0  0  0  0  0  0  0  0  0
  1  2  1  0  0  0  0
  2  3  2  0  0  0  0
  2  4  1  0  0  0  0
  3  5  1  0  0  0  0
  4  6  2  0  0  0  0
  5  7  2  0  0  0  0
  7  8  1  0  0  0  0
  8  9  1  0  0  0  0
  9 10  1  0  0  0  0
  9 11  1  0  0  0  0
 10 12  2  0  0  0  0
 10 13  1  0  0  0  0
 11 14  2  0  0  0  0
 11 15  1  0  0  0  0
 13 16  1  0  0  0  0
 14 17  1  0  0  0  0
 15 18  2  0  0  0  0
 16 19  1  0  0  0  0
 16 20  1  0  0  0  0
 17 21  2  0  0  0  0
 19 22  1  0  0  0  0
 20 23  1  0  0  0  0
 22 24  1  0  0  0  0
 24 25  1  0  0  0  0
 25 26  1  0  0  0  0
 26 27  1  0  0  0  0
 27 28  2  0  0  0  0
 27 29  1  0  0  0  0
 28 30  1  0  0  0  0
 29 31  2  0  0  0  0
 30 32  2  0  0  0  0
 32 33  1  0  0  0  0
 33 34  1  0  0  0  0
  6  7  1  0  0  0  0
 12 14  1  0  0  0  0
 18 21  1  0  0  0  0
 23 24  1  0  0  0  0
 31 32  1  0  0  0  0
M  END
>  <GENERIC_NAME>
Astemizole

>  <SYNONYMS>


>  <cLogP>
5.1461

>  <cLogS>
-4.565

>  <H-Acceptors>
5

>  <H-Donors>
1

>  <Polar Surface Area>
42.32

>  <Druglikeness>
6.3819

>  <Mutagenic>
none

>  <Tumorigenic>
none

>  <Reproductive Effective>
none

>  <Irritant>
none

>  <Nasty Functions>


>  <Symmetric atoms>
6

>  <Molecular Formula>
C28H31N4OF

>  <Total Molweight>
458.579

$$$$

Actelion Java MolfileCreator 1.0

 33 35  0  0  0  0  0  0  0  0999 V2000
    0.0000   -0.0000   -0.0000 O   0  0  0  0  0  0  0  0  0  0  0  0
   -1.5095    0.0118   -0.0000 C   0  0  0  0  0  0  0  0  0  0  0  0
    0.7312    1.3090   -0.0000 C   0  0  0  0  0  0  0  0  0  0  0  0
   -2.2761   -1.2736   -0.0000 O   0  0  0  0  0  0  0  0  0  0  0  0
   -2.2761    1.3208   -0.0000 C   0  0  0  0  0  0  0  0  0  0  0  0
    2.2171    1.3208   -0.0000 C   0  0  0  0  0  0  0  0  0  0  0  0
   -0.0236    2.6180   -0.0000 C   0  0  0  0  0  0  0  0  0  0  0  0
   -2.2878   -2.7596   -0.0000 C   0  0  0  0  0  0  0  0  0  0  0  0
   -3.7856    1.3326   -0.0000 N   0  0  0  0  0  0  0  0  0  0  0  0
   -1.5331    2.6298   -0.0000 C   0  0  0  0  0  0  0  0  0  0  0  0
    2.9600    2.6298   -0.0000 N   0  0  0  0  0  0  0  0  0  0  0  0
    2.9600    0.0354   -0.0000 C   0  0  0  0  0  0  0  0  0  0  0  0
   -3.5969   -3.4907   -0.0000 C   0  0  0  0  0  0  0  0  0  0  0  0
   -1.0024   -3.4907   -0.0000 C   0  0  0  0  0  0  0  0  0  0  0  0
    4.4460    2.6416   -0.0000 C   0  0  0  0  0  0  0  0  0  0  0  0
   -4.9059   -2.7360   -0.0000 O   0  0  0  0  0  0  0  0  0  0  0  0
   -3.6087   -4.9767   -0.0000 C   0  0  0  0  0  0  0  0  0  0  0  0
    0.4835   -3.4789   -0.0000 N   0  0  0  0  0  0  0  0  0  0  0  0
   -1.0142   -4.9767   -0.0000 C   0  0  0  0  0  0  0  0  0  0  0  0
   -4.9177   -5.7196   -0.0000 O   0  0  0  0  0  0  0  0  0  0  0  0
   -2.3232   -5.7196   -0.0000 C   0  0  0  0  0  0  0  0  0  0  0  0
   -6.2267   -4.9531   -0.0000 C   0  0  0  0  0  0  0  0  0  0  0  0
   -2.3350   -7.2055   -0.0000 N   0  0  0  0  0  0  0  0  0  0  0  0
   -6.2385   -3.4436   -0.0000 O   0  0  0  0  0  0  0  0  0  0  0  0
   -7.5357   -5.6960   -0.0000 C   0  0  0  0  0  0  0  0  0  0  0  0
   -7.5475   -2.6888   -0.0000 C   0  0  0  0  0  0  0  0  0  0  0  0
   -7.5475   -7.1819   -0.0000 O   0  0  0  0  0  0  0  0  0  0  0  0
   -8.8448   -4.9295   -0.0000 C   0  0  0  0  0  0  0  0  0  0  0  0
   -8.8566   -3.4200   -0.0000 C   0  0  0  0  0  0  0  0  0  0  0  0
  -10.1538   -5.6724   -0.0000 N   0  0  0  0  0  0  0  0  0  0  0  0
   -9.6113   -2.1109   -0.0000 O   0  0  0  0  0  0  0  0  0  0  0  0
  -10.3661   -3.4082   -0.0000 C   0  0  0  0  0  0  0  0  0  0  0  0
  -10.1656   -7.1584   -0.0000 C   0  0  0  0  0  0  0  0  0  0  0  0
  1  2  1  0  0  0  0
  1  3  1  0  0  0  0
  2  4  1  0  0  0  0
  2  5  1  0  0  0  0
  3  6  1  0  0  0  0
  3  7  1  0  0  0  0
  4  8  1  0  0  0  0
  5  9  1  0  0  0  0
  5 10  1  0  0  0  0
  6 11  1  0  0  0  0
  6 12  1  0  0  0  0
  8 13  1  0  0  0  0
  8 14  1  0  0  0  0
 11 15  1  0  0  0  0
 13 16  1  0  0  0  0
 13 17  1  0  0  0  0
 14 18  1  0  0  0  0
 14 19  1  0  0  0  0
 17 20  1  0  0  0  0
 17 21  1  0  0  0  0
 20 22  1  0  0  0  0
 21 23  1  0  0  0  0
 22 24  1  0  0  0  0
 22 25  1  0  0  0  0
 24 26  1  0  0  0  0
 25 27  1  0  0  0  0
 25 28  1  0  0  0  0
 26 29  1  0  0  0  0
 28 30  1  0  0  0  0
 29 31  1  0  0  0  0
 29 32  1  0  0  0  0
 30 33  1  0  0  0  0
  7 10  1  0  0  0  0
 19 21  1  0  0  0  0
 28 29  1  0  0  0  0
M  END
>  <GENERIC_NAME>
Gentamicin

>  <SYNONYMS>


>  <cLogP>
-4.2052

>  <cLogS>
-1.181

>  <H-Acceptors>
12

>  <H-Donors>
8

>  <Polar Surface Area>
199.73

>  <Druglikeness>
4.8824

>  <Mutagenic>
none

>  <Tumorigenic>
none

>  <Reproductive Effective>
none

>  <Irritant>
none

>  <Nasty Functions>


>  <Symmetric atoms>
0

>  <Molecular Formula>
C21H43N5O7

>  <Total Molweight>
477.6

$$$$

Actelion Java MolfileCreator 1.0

 32 34  0  0  0  0  0  0  0  0999 V2000
    0.0000   -0.0000   -0.0000 O   0  0  0  0  0  0  0  0  0  0  0  0
    1.2861    0.7552   -0.0000 C   0  0  0  0  0  0  0  0  0  0  0  0
    1.2743    2.2655   -0.0000 O   0  0  0  0  0  0  0  0  0  0  0  0
    2.5722    0.0236   -0.0000 C   0  0  0  0  0  0  0  0  0  0  0  0
    2.5604   -1.4631   -0.0000 N   0  0  0  0  0  0  0  0  0  0  0  0
    3.8584    0.7788   -0.0000 C   0  0  0  0  0  0  0  0  0  0  0  0
    1.2507   -2.1947   -0.0000 C   0  0  0  0  0  0  0  0  0  0  0  0
    3.8466   -2.1947   -0.0000 C   0  0  0  0  0  0  0  0  0  0  0  0
    5.1445    0.0472   -0.0000 C   0  0  0  0  0  0  0  0  0  0  0  0
   -0.0590   -1.4395   -0.0000 O   0  0  0  0  0  0  0  0  0  0  0  0
    1.2389   -3.6814   -0.0000 C   0  0  0  0  0  0  0  0  0  0  0  0
    5.1327   -1.4395   -0.0000 C   0  0  0  0  0  0  0  0  0  0  0  0
    6.4778    0.8613   -0.0000 C   0  0  0  0  0  0  0  0  0  0  0  0
   -0.0708   -4.4129   -0.0000 N   0  0  0  0  0  0  0  0  0  0  0  0
    2.5250   -4.4129   -0.0000 C   0  0  0  0  0  0  0  0  0  0  0  0
    6.4660   -2.2301   -0.0000 C   0  0  0  0  0  0  0  0  0  0  0  0
    7.8229    0.1062   -0.0000 C   0  0  0  0  0  0  0  0  0  0  0  0
   -0.0826   -5.8996   -0.0000 C   0  0  0  0  0  0  0  0  0  0  0  0
    7.8111   -1.4513   -0.0000 C   0  0  0  0  0  0  0  0  0  0  0  0
   -1.3923   -6.6312   -0.0000 C   0  0  0  0  0  0  0  0  0  0  0  0
    1.2035   -6.6312   -0.0000 C   0  0  0  0  0  0  0  0  0  0  0  0
   -2.7020   -5.8760   -0.0000 O   0  0  0  0  0  0  0  0  0  0  0  0
   -1.4041   -8.1179   -0.0000 O   0  0  0  0  0  0  0  0  0  0  0  0
    1.1917   -8.1179   -0.0000 C   0  0  0  0  0  0  0  0  0  0  0  0
   -2.7138   -8.8613   -0.0000 C   0  0  0  0  0  0  0  0  0  0  0  0
    2.4779   -8.8613   -0.0000 C   0  0  0  0  0  0  0  0  0  0  0  0
   -2.7256  -10.3480   -0.0000 C   0  0  0  0  0  0  0  0  0  0  0  0
    3.7640   -8.0943   -0.0000 C   0  0  0  0  0  0  0  0  0  0  0  0
    2.4661  -10.3480   -0.0000 C   0  0  0  0  0  0  0  0  0  0  0  0
    5.0501   -8.8377   -0.0000 C   0  0  0  0  0  0  0  0  0  0  0  0
    3.7522  -11.0795   -0.0000 C   0  0  0  0  0  0  0  0  0  0  0  0
    5.0383  -10.3244   -0.0000 C   0  0  0  0  0  0  0  0  0  0  0  0
  1  2  2  0  0  0  0
  2  3  1  0  0  0  0
  4  2  1  6  0  0  0
  4  5  1  0  0  0  0
  4  6  1  0  0  0  0
  5  7  1  0  0  0  0
  5  8  1  0  0  0  0
  6  9  1  0  0  0  0
  7 10  2  0  0  0  0
  7 11  1  0  0  0  0
  8 12  1  0  0  0  0
  9 13  2  0  0  0  0
 11 14  1  6  0  0  0
 11 15  1  0  0  0  0
 12 16  2  0  0  0  0
 13 17  1  0  0  0  0
 18 14  1  1  0  0  0
 16 19  1  0  0  0  0
 18 20  1  0  0  0  0
 18 21  1  0  0  0  0
 20 22  2  0  0  0  0
 20 23  1  0  0  0  0
 21 24  1  0  0  0  0
 23 25  1  0  0  0  0
 24 26  1  0  0  0  0
 25 27  1  0  0  0  0
 26 28  2  0  0  0  0
 26 29  1  0  0  0  0
 28 30  1  0  0  0  0
 29 31  2  0  0  0  0
 30 32  2  0  0  0  0
  9 12  1  0  0  0  0
 17 19  2  0  0  0  0
 31 32  1  0  0  0  0
M  END
>  <GENERIC_NAME>
Quinapril

>  <SYNONYMS>
Quinapril HCl; Quinapril Hydrochloride; Quinaprilum [Latin]

>  <cLogP>
0.6984

>  <cLogS>
-3.463

>  <H-Acceptors>
7

>  <H-Donors>
2

>  <Polar Surface Area>
95.94

>  <Druglikeness>
-1.26

>  <Mutagenic>
none

>  <Tumorigenic>
none

>  <Reproductive Effective>
none

>  <Irritant>
none

>  <Nasty Functions>


>  <Symmetric atoms>
2

>  <Molecular Formula>
C25H30N2O5

>  <Total Molweight>
438.522

$$$$

Actelion Java MolfileCreator 1.0

 10 10  0  0  0  0  0  0  0  0999 V2000
    0.0000   -0.0000   -0.0000 O   0  0  0  0  0  0  0  0  0  0  0  0
    1.2946   -0.7364   -0.0000 C   0  0  0  0  0  0  0  0  0  0  0  0
    2.5893    0.0238   -0.0000 N   0  0  0  0  0  0  0  0  0  0  0  0
    1.2828   -2.2330   -0.0000 C   0  0  0  0  0  0  0  0  0  0  0  0
    2.5774    1.5441   -0.0000 N   0  0  0  0  0  0  0  0  0  0  0  0
    2.5774   -2.9694   -0.0000 C   0  0  0  0  0  0  0  0  0  0  0  0
   -0.0356   -2.9694   -0.0000 C   0  0  0  0  0  0  0  0  0  0  0  0
    2.5655   -4.4659   -0.0000 C   0  0  0  0  0  0  0  0  0  0  0  0
   -0.0475   -4.4659   -0.0000 C   0  0  0  0  0  0  0  0  0  0  0  0
    1.2471   -5.2023   -0.0000 N   0  0  0  0  0  0  0  0  0  0  0  0
  1  2  2  0  0  0  0
  2  3  1  0  0  0  0
  2  4  1  0  0  0  0
  3  5  1  0  0  0  0
  4  6  2  0  0  0  0
  4  7  1  0  0  0  0
  6  8  1  0  0  0  0
  7  9  2  0  0  0  0
  8 10  2  0  0  0  0
  9 10  1  0  0  0  0
M  END
>  <GENERIC_NAME>
Isoniazid

>  <SYNONYMS>
HIA; Hydrazid; Hydrazide; INH; Isohydrazide; Isonicotinhydrazid; Isonicotinic acid hydrazide; Isonicotinic hydrazide; Isonicotinohydrazide; Isonicotinoyl hydrazide; Isonicotinyl hydrazide; Isonicotinyl hydrazine; Isonicotinylhydrazine

>  <cLogP>
-1.0181

>  <cLogS>
-1.187

>  <H-Acceptors>
4

>  <H-Donors>
2

>  <Polar Surface Area>
68.01

>  <Druglikeness>
-5.7809

>  <Mutagenic>
high

>  <Tumorigenic>
high

>  <Reproductive Effective>
high

>  <Irritant>
high

>  <Nasty Functions>
hydrazine

>  <Symmetric atoms>
2

>  <Molecular Formula>
C6H7N3O

>  <Total Molweight>
137.142

$$$$

Actelion Java MolfileCreator 1.0

 33 36  0  0  0  0  0  0  0  0999 V2000
    0.0000   -0.0000   -0.0000 O   0  0  0  0  0  0  0  0  0  0  0  0
   -0.0118    1.5131   -0.0000 C   0  0  0  0  0  0  0  0  0  0  0  0
   -1.3240    2.2696   -0.0000 C   0  0  0  0  0  0  0  0  0  0  0  0
    1.2767    2.2696   -0.0000 C   0  0  0  0  0  0  0  0  0  0  0  0
   -2.6361    1.5367   -0.0000 C   0  0  0  0  0  0  0  0  0  0  0  0
   -1.3358    3.7827   -0.0000 C   0  0  0  0  0  0  0  0  0  0  0  0
    2.5652    1.5367   -0.0000 C   0  0  0  0  0  0  0  0  0  0  0  0
    1.2649    3.7827   -0.0000 C   0  0  0  0  0  0  0  0  0  0  0  0
   -2.6479    0.0473   -0.0000 O   0  0  0  0  0  0  0  0  0  0  0  0
   -3.9482    2.2933   -0.0000 C   0  0  0  0  0  0  0  0  0  0  0  0
   -2.6479    4.5393   -0.0000 C   0  0  0  0  0  0  0  0  0  0  0  0
   -0.0473    4.5393   -0.0000 C   0  0  0  0  0  0  0  0  0  0  0  0
    2.5534    0.0473   -0.0000 O   0  0  0  0  0  0  0  0  0  0  0  0
    3.8537    2.2933   -0.0000 C   0  0  0  0  0  0  0  0  0  0  0  0
    2.5534    4.5393   -0.0000 C   0  0  0  0  0  0  0  0  0  0  0  0
   -3.9601    3.8064   -0.0000 C   0  0  0  0  0  0  0  0  0  0  0  0
   -2.6597    6.0524   -0.0000 N   0  0  0  0  0  0  0  0  0  0  0  0
    3.8419    0.8038   -0.0000 O   0  0  0  0  0  0  0  0  0  0  0  0
    5.1422    1.5604   -0.0000 C   0  0  0  0  0  0  0  0  0  0  0  0
    3.8419    3.8064   -0.0000 C   0  0  0  0  0  0  0  0  0  0  0  0
   -1.3712    6.8089   -0.0000 C   0  0  0  0  0  0  0  0  0  0  0  0
   -3.9719    6.8089   -0.0000 C   0  0  0  0  0  0  0  0  0  0  0  0
    5.1304    0.0709   -0.0000 O   0  0  0  0  0  0  0  0  0  0  0  0
    6.4307    2.3169   -0.0000 C   0  0  0  0  0  0  0  0  0  0  0  0
    5.1304    4.5629   -0.0000 C   0  0  0  0  0  0  0  0  0  0  0  0
    6.4189    3.8300   -0.0000 C   0  0  0  0  0  0  0  0  0  0  0  0
    7.7192    1.5840   -0.0000 C   0  0  0  0  0  0  0  0  0  0  0  0
    5.1185    6.0760   -0.0000 N   0  0  0  0  0  0  0  0  0  0  0  0
    7.7074    4.5866   -0.0000 O   0  0  0  0  0  0  0  0  0  0  0  0
    7.7074    0.0946   -0.0000 O   0  0  0  0  0  0  0  0  0  0  0  0
    9.0077    2.3406   -0.0000 N   0  0  0  0  0  0  0  0  0  0  0  0
    6.4070    6.8326   -0.0000 C   0  0  0  0  0  0  0  0  0  0  0  0
    3.8064    6.8326   -0.0000 C   0  0  0  0  0  0  0  0  0  0  0  0
  1  2  2  0  0  0  0
  2  3  1  0  0  0  0
  2  4  1  0  0  0  0
  3  5  2  0  0  0  0
  3  6  1  0  0  0  0
  4  7  2  0  0  0  0
  4  8  1  0  0  0  0
  5  9  1  0  0  0  0
  5 10  1  0  0  0  0
  6 11  2  0  0  0  0
  6 12  1  0  0  0  0
  7 13  1  0  0  0  0
  7 14  1  0  0  0  0
  8 15  1  6  0  0  0
 10 16  2  0  0  0  0
 11 17  1  0  0  0  0
 14 18  1  1  0  0  0
 14 19  1  0  0  0  0
 14 20  1  0  0  0  0
 17 21  1  0  0  0  0
 17 22  1  0  0  0  0
 19 23  2  0  0  0  0
 19 24  1  0  0  0  0
 20 25  1  0  0  0  0
 24 26  2  0  0  0  0
 24 27  1  0  0  0  0
 25 28  1  1  0  0  0
 26 29  1  0  0  0  0
 27 30  2  0  0  0  0
 27 31  1  0  0  0  0
 28 32  1  0  0  0  0
 28 33  1  0  0  0  0
  8 12  1  0  0  0  0
 11 16  1  0  0  0  0
 20 15  1  6  0  0  0
 25 26  1  0  0  0  0
M  END
>  <GENERIC_NAME>
Minocycline

>  <SYNONYMS>


>  <cLogP>
-1.102

>  <cLogS>
-1.999

>  <H-Acceptors>
10

>  <H-Donors>
5

>  <Polar Surface Area>
164.63

>  <Druglikeness>
4.5967

>  <Mutagenic>
none

>  <Tumorigenic>
none

>  <Reproductive Effective>
none

>  <Irritant>
none

>  <Nasty Functions>
twice activated DB

>  <Symmetric atoms>
2

>  <Molecular Formula>
C23H27N3O7

>  <Total Molweight>
457.481

$$$$

Actelion Java MolfileCreator 1.0

 15 15  0  0  0  0  0  0  0  0999 V2000
    0.0000   -0.0000   -0.0000 Cl  0  0  0  0  0  0  0  0  0  0  0  0
    1.2888    0.7567   -0.0000 C   0  0  0  0  0  0  0  0  0  0  0  0
    1.2888    2.2583   -0.0000 C   0  0  0  0  0  0  0  0  0  0  0  0
    2.5776    0.0236   -0.0000 C   0  0  0  0  0  0  0  0  0  0  0  0
    2.5657    3.0269   -0.0000 C   0  0  0  0  0  0  0  0  0  0  0  0
   -0.0236    3.0269   -0.0000 C   0  0  0  0  0  0  0  0  0  0  0  0
    3.8663    0.7804   -0.0000 C   0  0  0  0  0  0  0  0  0  0  0  0
    2.5421    4.5403   -0.0000 Cl  0  0  0  0  0  0  0  0  0  0  0  0
    3.8545    2.2938   -0.0000 C   0  0  0  0  0  0  0  0  0  0  0  0
   -1.3242    2.2820   -0.0000 C   0  0  0  0  0  0  0  0  0  0  0  0
   -1.3361    0.8040   -0.0000 O   0  0  0  0  0  0  0  0  0  0  0  0
   -2.6367    3.0505   -0.0000 N   0  0  0  0  0  0  0  0  0  0  0  0
   -3.9491    2.3056   -0.0000 C   0  0  0  0  0  0  0  0  0  0  0  0
   -3.9609    0.8277   -0.0000 N   0  0  0  0  0  0  0  0  0  0  0  0
   -5.2615    3.0741   -0.0000 N   0  0  0  0  0  0  0  0  0  0  0  0
  1  2  1  0  0  0  0
  2  3  2  0  0  0  0
  2  4  1  0  0  0  0
  3  5  1  0  0  0  0
  3  6  1  0  0  0  0
  4  7  2  0  0  0  0
  5  8  1  0  0  0  0
  5  9  2  0  0  0  0
  6 10  1  0  0  0  0
 10 11  2  0  0  0  0
 10 12  1  0  0  0  0
 12 13  1  0  0  0  0
 13 14  2  0  0  0  0
 13 15  1  0  0  0  0
  7  9  1  0  0  0  0
M  END
>  <GENERIC_NAME>
Guanfacine

>  <SYNONYMS>
Guanfacina [INN-Spanish]; Guanfacine HCl; Guanfacine Hydrochloride; Guanfacinum [INN-Latin]; SPD 503

>  <cLogP>
1.3437

>  <cLogS>
-2.783

>  <H-Acceptors>
4

>  <H-Donors>
3

>  <Polar Surface Area>
78.97

>  <Druglikeness>
2.4374

>  <Mutagenic>
none

>  <Tumorigenic>
none

>  <Reproductive Effective>
none

>  <Irritant>
none

>  <Nasty Functions>


>  <Symmetric atoms>
3

>  <Molecular Formula>
C9H9N3OCl2

>  <Total Molweight>
246.096

$$$$

Actelion Java MolfileCreator 1.0

 12 12  0  0  0  0  0  0  0  0999 V2000
    0.0000   -0.0000   -0.0000 O   0  0  0  0  0  0  0  0  0  0  0  0
    1.2935   -0.7358   -0.0000 C   0  0  0  0  0  0  0  0  0  0  0  0
    2.5870    0.0237   -0.0000 O   0  0  0  0  0  0  0  0  0  0  0  0
    1.2816   -2.2310   -0.0000 C   0  0  0  0  0  0  0  0  0  0  0  0
    2.5752    1.5427   -0.0000 C   0  0  0  0  0  0  0  0  0  0  0  0
    2.5752   -2.9668   -0.0000 C   0  0  0  0  0  0  0  0  0  0  0  0
   -0.0356   -2.9668   -0.0000 C   0  0  0  0  0  0  0  0  0  0  0  0
    3.8687    2.3141   -0.0000 C   0  0  0  0  0  0  0  0  0  0  0  0
    2.5633   -4.4620   -0.0000 C   0  0  0  0  0  0  0  0  0  0  0  0
   -0.0475   -4.4620   -0.0000 C   0  0  0  0  0  0  0  0  0  0  0  0
    1.2460   -5.2097   -0.0000 C   0  0  0  0  0  0  0  0  0  0  0  0
    1.2342   -6.7049   -0.0000 N   0  0  0  0  0  0  0  0  0  0  0  0
  1  2  2  0  0  0  0
  2  3  1  0  0  0  0
  2  4  1  0  0  0  0
  3  5  1  0  0  0  0
  4  6  2  0  0  0  0
  4  7  1  0  0  0  0
  5  8  1  0  0  0  0
  6  9  1  0  0  0  0
  7 10  2  0  0  0  0
  9 11  2  0  0  0  0
 11 12  1  0  0  0  0
 10 11  1  0  0  0  0
M  END
>  <GENERIC_NAME>
Benzocaine

>  <SYNONYMS>
Ethyl Aminobenzoate; Ethyl P-Aminobenzoate; Ethyl P-Aminophenylcarboxylate; Ethylester Kyseliny P-Aminobenzoove; P-Aminobenzoic Acid, Ethyl Ester; P-Carbethoxyaniline; P-Ethoxycarboxylic Aniline

>  <cLogP>
1.3016

>  <cLogS>
-2.133

>  <H-Acceptors>
3

>  <H-Donors>
1

>  <Polar Surface Area>
52.32

>  <Druglikeness>
-5.1632

>  <Mutagenic>
none

>  <Tumorigenic>
none

>  <Reproductive Effective>
none

>  <Irritant>
high

>  <Nasty Functions>


>  <Symmetric atoms>
2

>  <Molecular Formula>
C9H11NO2

>  <Total Molweight>
165.191

$$$$

Actelion Java MolfileCreator 1.0

 19 20  0  0  0  0  0  0  0  0999 V2000
    0.0000   -0.0000   -0.0000 O   0  0  0  0  0  0  0  0  0  0  0  0
    1.2792   -0.7393   -0.0000 C   0  0  0  0  0  0  0  0  0  0  0  0
   -0.0117    1.5022   -0.0000 C   0  0  0  0  0  0  0  0  0  0  0  0
    1.2674   -2.2180   -0.0000 C   0  0  0  0  0  0  0  0  0  0  0  0
    2.5584    0.0235   -0.0000 C   0  0  0  0  0  0  0  0  0  0  0  0
    2.5466   -2.9456   -0.0000 C   0  0  0  0  0  0  0  0  0  0  0  0
    3.8376   -0.7159   -0.0000 C   0  0  0  0  0  0  0  0  0  0  0  0
    2.5349   -4.4243   -0.0000 N   0  0  0  0  0  0  0  0  0  0  0  0
    3.8258   -2.1946   -0.0000 C   0  0  0  0  0  0  0  0  0  0  0  0
    5.1637    0.0939   -0.0000 C   0  0  0  0  0  0  0  0  0  0  0  0
    1.2322   -5.1519   -0.0000 C   0  0  0  0  0  0  0  0  0  0  0  0
    5.1519   -2.9808   -0.0000 N   0  0  0  0  0  0  0  0  0  0  0  0
    6.5015   -0.6572   -0.0000 C   0  0  0  0  0  0  0  0  0  0  0  0
    1.2205   -6.6306   -0.0000 C   0  0  0  0  0  0  0  0  0  0  0  0
   -0.0704   -4.4009   -0.0000 C   0  0  0  0  0  0  0  0  0  0  0  0
    6.4898   -2.2063   -0.0000 C   0  0  0  0  0  0  0  0  0  0  0  0
   -0.0821   -7.3582   -0.0000 C   0  0  0  0  0  0  0  0  0  0  0  0
   -0.0939   -8.8369   -0.0000 C   0  0  0  0  0  0  0  0  0  0  0  0
   -1.3965   -9.5645   -0.0000 N   0  0  0  0  0  0  0  0  0  0  0  0
  1  2  1  0  0  0  0
  1  3  1  0  0  0  0
  2  4  2  0  0  0  0
  2  5  1  0  0  0  0
  4  6  1  0  0  0  0
  5  7  2  0  0  0  0
  6  8  1  0  0  0  0
  6  9  2  0  0  0  0
  7 10  1  0  0  0  0
 11  8  1  6  0  0  0
  9 12  1  0  0  0  0
 10 13  2  0  0  0  0
 11 14  1  0  0  0  0
 11 15  1  0  0  0  0
 12 16  2  0  0  0  0
 14 17  1  0  0  0  0
 17 18  1  0  0  0  0
 18 19  1  0  0  0  0
  7  9  1  0  0  0  0
 13 16  1  0  0  0  0
M  END
>  <GENERIC_NAME>
Primaquine

>  <SYNONYMS>


>  <cLogP>
1.9025

>  <cLogS>
-3.187

>  <H-Acceptors>
4

>  <H-Donors>
2

>  <Polar Surface Area>
60.17

>  <Druglikeness>
1.2011

>  <Mutagenic>
high

>  <Tumorigenic>
none

>  <Reproductive Effective>
none

>  <Irritant>
none

>  <Nasty Functions>


>  <Symmetric atoms>
0

>  <Molecular Formula>
C15H21N3O

>  <Total Molweight>
259.352

$$$$

Actelion Java MolfileCreator 1.0

 30 32  0  0  0  0  0  0  0  0999 V2000
    0.0000   -0.0000   -0.0000 F   0  0  0  0  0  0  0  0  0  0  0  0
   -0.4747   -1.4241   -0.0000 C   0  0  0  0  0  0  0  0  0  0  0  0
   -1.9582   -1.7208   -0.0000 C   0  0  0  0  0  0  0  0  0  0  0  0
    0.5222   -2.5397   -0.0000 C   0  0  0  0  0  0  0  0  0  0  0  0
   -2.4329   -3.1450   -0.0000 C   0  0  0  0  0  0  0  0  0  0  0  0
    0.0475   -3.9639   -0.0000 C   0  0  0  0  0  0  0  0  0  0  0  0
   -1.4360   -4.2606   -0.0000 C   0  0  0  0  0  0  0  0  0  0  0  0
   -1.9107   -5.6847   -0.0000 C   0  0  0  0  0  0  0  0  0  0  0  0
   -3.3467   -6.1357   -0.0000 C   0  0  0  0  0  0  0  0  0  0  0  0
   -1.0444   -6.8833   -0.0000 C   0  0  0  0  0  0  0  0  0  0  0  0
   -3.3586   -7.6310   -0.0000 C   0  0  0  0  0  0  0  0  0  0  0  0
   -4.6641   -5.3761   -0.0000 C   0  0  0  0  0  0  0  0  0  0  0  0
   -1.9345   -8.0820   -0.0000 N   0  0  0  0  0  0  0  0  0  0  0  0
    0.4510   -6.8715   -0.0000 C   0  0  0  0  0  0  0  0  0  0  0  0
   -4.6759   -8.3668   -0.0000 C   0  0  0  0  0  0  0  0  0  0  0  0
   -5.9814   -6.1119   -0.0000 C   0  0  0  0  0  0  0  0  0  0  0  0
   -1.4835   -9.5061   -0.0000 C   0  0  0  0  0  0  0  0  0  0  0  0
    1.1868   -8.1651   -0.0000 C   0  0  0  0  0  0  0  0  0  0  0  0
   -5.9933   -7.6073   -0.0000 C   0  0  0  0  0  0  0  0  0  0  0  0
   -2.5041  -10.6217   -0.0000 C   0  0  0  0  0  0  0  0  0  0  0  0
   -0.0237   -9.8028   -0.0000 C   0  0  0  0  0  0  0  0  0  0  0  0
    2.6821   -8.1532   -0.0000 C   0  0  0  0  0  0  0  0  0  0  0  0
    3.4179   -6.8359   -0.0000 O   0  0  0  0  0  0  0  0  0  0  0  0
    3.4179   -9.4468   -0.0000 C   0  0  0  0  0  0  0  0  0  0  0  0
    4.9133   -9.4349   -0.0000 C   0  0  0  0  0  0  0  0  0  0  0  0
    5.6491   -8.1176   -0.0000 O   0  0  0  0  0  0  0  0  0  0  0  0
    5.6491  -10.7285   -0.0000 C   0  0  0  0  0  0  0  0  0  0  0  0
    7.1444  -10.7167   -0.0000 C   0  0  0  0  0  0  0  0  0  0  0  0
    7.8802   -9.3993   -0.0000 O   0  0  0  0  0  0  0  0  0  0  0  0
    7.8802  -12.0103   -0.0000 O   0  0  0  0  0  0  0  0  0  0  0  0
  1  2  1  0  0  0  0
  2  3  2  0  0  0  0
  2  4  1  0  0  0  0
  3  5  1  0  0  0  0
  4  6  2  0  0  0  0
  5  7  2  0  0  0  0
  7  8  1  0  0  0  0
  8  9  1  0  0  0  0
  8 10  2  0  0  0  0
  9 11  2  0  0  0  0
  9 12  1  0  0  0  0
 10 13  1  0  0  0  0
 10 14  1  0  0  0  0
 11 15  1  0  0  0  0
 12 16  2  0  0  0  0
 13 17  1  0  0  0  0
 14 18  2  0  0  0  0
 15 19  2  0  0  0  0
 17 20  1  0  0  0  0
 17 21  1  0  0  0  0
 18 22  1  0  0  0  0
 22 23  1  1  0  0  0
 22 24  1  0  0  0  0
 24 25  1  0  0  0  0
 25 26  1  1  0  0  0
 25 27  1  0  0  0  0
 27 28  1  0  0  0  0
 28 29  2  0  0  0  0
 28 30  1  0  0  0  0
  6  7  1  0  0  0  0
 11 13  1  0  0  0  0
 16 19  1  0  0  0  0
M  END
>  <GENERIC_NAME>
Fluvastatin

>  <SYNONYMS>
Fluindostatin ; Fluvastatin sodium; Fluvastatina [INN-Spanish] ; Fluvastatine [INN-French] ; Fluvastatinum [INN-Latin]

>  <cLogP>
3.9775

>  <cLogS>
-4.813

>  <H-Acceptors>
5

>  <H-Donors>
3

>  <Polar Surface Area>
82.69

>  <Druglikeness>
1.8038

>  <Mutagenic>
none

>  <Tumorigenic>
none

>  <Reproductive Effective>
high

>  <Irritant>
none

>  <Nasty Functions>


>  <Symmetric atoms>
3

>  <Molecular Formula>
C24H26NO4F

>  <Total Molweight>
411.471

$$$$

Actelion Java MolfileCreator 1.0

 21 22  0  0  0  0  0  0  0  0999 V2000
    0.0000   -0.0000   -0.0000 S   0  0  0  0  0  0  0  0  0  0  0  0
    0.7344   -1.2911   -0.0000 O   0  0  0  0  0  0  0  0  0  0  0  0
   -0.7580    1.3147   -0.0000 O   0  0  0  0  0  0  0  0  0  0  0  0
   -1.3147   -0.7344   -0.0000 N   0  0  0  0  0  0  0  0  0  0  0  0
    1.2911    0.7580   -0.0000 C   0  0  0  0  0  0  0  0  0  0  0  0
   -1.3266   -2.2268   -0.0000 C   0  0  0  0  0  0  0  0  0  0  0  0
    2.5821    0.0237   -0.0000 C   0  0  0  0  0  0  0  0  0  0  0  0
    1.2792    2.2741   -0.0000 C   0  0  0  0  0  0  0  0  0  0  0  0
   -0.0355   -2.9611   -0.0000 N   0  0  0  0  0  0  0  0  0  0  0  0
   -2.6413   -2.9611   -0.0000 C   0  0  0  0  0  0  0  0  0  0  0  0
    3.8732    0.7817   -0.0000 C   0  0  0  0  0  0  0  0  0  0  0  0
    2.5703    3.0440   -0.0000 C   0  0  0  0  0  0  0  0  0  0  0  0
   -0.0474   -4.4535   -0.0000 C   0  0  0  0  0  0  0  0  0  0  0  0
   -3.9561   -2.2031   -0.0000 O   0  0  0  0  0  0  0  0  0  0  0  0
   -2.6532   -4.4535   -0.0000 C   0  0  0  0  0  0  0  0  0  0  0  0
    3.8613    2.2978   -0.0000 C   0  0  0  0  0  0  0  0  0  0  0  0
   -1.3621   -5.1879   -0.0000 N   0  0  0  0  0  0  0  0  0  0  0  0
   -5.2708   -2.9374   -0.0000 C   0  0  0  0  0  0  0  0  0  0  0  0
   -3.9679   -5.1879   -0.0000 O   0  0  0  0  0  0  0  0  0  0  0  0
    5.1524    3.0677   -0.0000 N   0  0  0  0  0  0  0  0  0  0  0  0
   -3.9798   -6.6803   -0.0000 C   0  0  0  0  0  0  0  0  0  0  0  0
  1  2  2  0  0  0  0
  1  3  2  0  0  0  0
  1  4  1  0  0  0  0
  1  5  1  0  0  0  0
  4  6  1  0  0  0  0
  5  7  2  0  0  0  0
  5  8  1  0  0  0  0
  6  9  2  0  0  0  0
  6 10  1  0  0  0  0
  7 11  1  0  0  0  0
  8 12  2  0  0  0  0
  9 13  1  0  0  0  0
 10 14  1  0  0  0  0
 10 15  2  0  0  0  0
 11 16  2  0  0  0  0
 13 17  2  0  0  0  0
 14 18  1  0  0  0  0
 15 19  1  0  0  0  0
 16 20  1  0  0  0  0
 19 21  1  0  0  0  0
 12 16  1  0  0  0  0
 15 17  1  0  0  0  0
M  END
>  <GENERIC_NAME>
Sulfadoxine

>  <SYNONYMS>


>  <cLogP>
0.281

>  <cLogS>
-3.107

>  <H-Acceptors>
8

>  <H-Donors>
2

>  <Polar Surface Area>
124.81

>  <Druglikeness>
1.9652

>  <Mutagenic>
none

>  <Tumorigenic>
none

>  <Reproductive Effective>
low

>  <Irritant>
none

>  <Nasty Functions>


>  <Symmetric atoms>
3

>  <Molecular Formula>
C12H14N4O4S

>  <Total Molweight>
310.333

$$$$

Actelion Java MolfileCreator 1.0

 26 30  0  0  0  0  0  0  0  0999 V2000
    0.0000   -0.0000   -0.0000 O   0  0  0  0  0  0  0  0  0  0  0  0
    1.4097   -0.3038   -0.0000 C   0  0  0  0  0  0  0  0  0  0  0  0
    1.8351   -1.6771   -0.0000 O   0  0  0  0  0  0  0  0  0  0  0  0
    2.3819    0.7778   -0.0000 C   0  0  0  0  0  0  0  0  0  0  0  0
    0.8385   -2.7344   -0.0000 C   0  0  0  0  0  0  0  0  0  0  0  0
    3.9132    0.4496   -0.0000 C   0  0  0  0  0  0  0  0  0  0  0  0
    1.9080    2.2969   -0.0000 C   0  0  0  0  0  0  0  0  0  0  0  0
    4.3507   -0.9236   -0.0000 O   0  0  0  0  0  0  0  0  0  0  0  0
    4.9583    1.6406   -0.0000 C   0  0  0  0  0  0  0  0  0  0  0  0
    2.9166    3.4392   -0.0000 C   0  0  0  0  0  0  0  0  0  0  0  0
    0.4132    2.6371   -0.0000 C   0  0  0  0  0  0  0  0  0  0  0  0
    4.4479    3.1475   -0.0000 C   0  0  0  0  0  0  0  0  0  0  0  0
    2.4184    4.8854   -0.0000 C   0  0  0  0  0  0  0  0  0  0  0  0
   -0.0486    4.0955   -0.0000 C   0  0  0  0  0  0  0  0  0  0  0  0
    0.9115    5.1892   -0.0000 N   0  0  0  0  0  0  0  0  0  0  0  0
   -1.4826    4.4114   -0.0000 C   0  0  0  0  0  0  0  0  0  0  0  0
    0.4496    6.5868   -0.0000 C   0  0  0  0  0  0  0  0  0  0  0  0
   -2.6736    3.5729   -0.0000 N   0  0  0  0  0  0  0  0  0  0  0  0
   -1.9444    5.8090   -0.0000 C   0  0  0  0  0  0  0  0  0  0  0  0
   -0.9844    6.9027   -0.0000 C   0  0  0  0  0  0  0  0  0  0  0  0
   -3.8524    4.4357   -0.0000 C   0  0  0  0  0  0  0  0  0  0  0  0
   -3.4028    5.8211   -0.0000 C   0  0  0  0  0  0  0  0  0  0  0  0
   -5.3350    4.1076   -0.0000 C   0  0  0  0  0  0  0  0  0  0  0  0
   -4.4114    6.9635   -0.0000 C   0  0  0  0  0  0  0  0  0  0  0  0
   -6.3680    5.2378   -0.0000 C   0  0  0  0  0  0  0  0  0  0  0  0
   -5.9062    6.6718   -0.0000 C   0  0  0  0  0  0  0  0  0  0  0  0
  1  2  2  0  0  0  0
  2  3  1  0  0  0  0
  4  2  1  1  0  0  0
  3  5  1  0  0  0  0
  4  6  1  0  0  0  0
  4  7  1  0  0  0  0
  6  8  1  1  0  0  0
  6  9  1  0  0  0  0
  7 10  1  0  0  0  0
  7 11  1  6  0  0  0
  9 12  1  0  0  0  0
 10 13  1  1  0  0  0
 11 14  1  0  0  0  0
 13 15  1  0  0  0  0
 14 16  1  0  0  0  0
 15 17  1  0  0  0  0
 16 18  1  0  0  0  0
 16 19  2  0  0  0  0
 17 20  1  0  0  0  0
 18 21  1  0  0  0  0
 19 22  1  0  0  0  0
 21 23  2  0  0  0  0
 22 24  2  0  0  0  0
 23 25  1  0  0  0  0
 24 26  1  0  0  0  0
 10 12  1  0  0  0  0
 14 15  1  6  0  0  0
 19 20  1  0  0  0  0
 21 22  1  0  0  0  0
 25 26  2  0  0  0  0
M  END
>  <GENERIC_NAME>
Yohimbine

>  <SYNONYMS>
Yohimbin

>  <cLogP>
2.3512

>  <cLogS>
-3.065

>  <H-Acceptors>
5

>  <H-Donors>
2

>  <Polar Surface Area>
65.56

>  <Druglikeness>
1.5035

>  <Mutagenic>
none

>  <Tumorigenic>
none

>  <Reproductive Effective>
none

>  <Irritant>
none

>  <Nasty Functions>


>  <Symmetric atoms>
0

>  <Molecular Formula>
C21H26N2O3

>  <Total Molweight>
354.448

$$$$

Actelion Java MolfileCreator 1.0

 14 15  0  0  0  0  0  0  0  0999 V2000
    0.0000   -0.0000   -0.0000 O   0  0  0  0  0  0  0  0  0  0  0  0
    1.4222    0.4741   -0.0000 C   0  0  0  0  0  0  0  0  0  0  0  0
    2.6310   -0.4029   -0.0000 N   0  0  0  0  0  0  0  0  0  0  0  0
    1.8725    1.9199   -0.0000 C   0  0  0  0  0  0  0  0  0  0  0  0
    3.8398    0.4978   -0.0000 N   0  0  0  0  0  0  0  0  0  0  0  0
    2.6191   -1.8962   -0.0000 C   0  0  0  0  0  0  0  0  0  0  0  0
    3.3658    1.9318   -0.0000 C   0  0  0  0  0  0  0  0  0  0  0  0
    5.2620    0.0474   -0.0000 C   0  0  0  0  0  0  0  0  0  0  0  0
    3.9109   -2.6310   -0.0000 C   0  0  0  0  0  0  0  0  0  0  0  0
    1.3036   -2.6310   -0.0000 C   0  0  0  0  0  0  0  0  0  0  0  0
    4.2428    3.1643   -0.0000 C   0  0  0  0  0  0  0  0  0  0  0  0
    3.8991   -4.1242   -0.0000 C   0  0  0  0  0  0  0  0  0  0  0  0
    1.2918   -4.1242   -0.0000 C   0  0  0  0  0  0  0  0  0  0  0  0
    2.5836   -4.8709   -0.0000 C   0  0  0  0  0  0  0  0  0  0  0  0
  1  2  2  0  0  0  0
  2  3  1  0  0  0  0
  2  4  1  0  0  0  0
  3  5  1  0  0  0  0
  3  6  1  0  0  0  0
  4  7  2  0  0  0  0
  5  8  1  0  0  0  0
  6  9  2  0  0  0  0
  6 10  1  0  0  0  0
  7 11  1  0  0  0  0
  9 12  1  0  0  0  0
 10 13  2  0  0  0  0
 12 14  2  0  0  0  0
  5  7  1  0  0  0  0
 13 14  1  0  0  0  0
M  END
>  <GENERIC_NAME>
Antipyrine

>  <SYNONYMS>
Acetasol; Analgesine; Anodynin; Anodynine; Antipirin; Antipyrin; Antipyrinum; Azophen; Azophenum; Fenazon [czech]; Fenazona [inn-spanish]; Fenazone; Phenazone; Phenozone

>  <cLogP>
0.5819

>  <cLogS>
-1.489

>  <H-Acceptors>
3

>  <H-Donors>
0

>  <Polar Surface Area>
23.55

>  <Druglikeness>
-0.3775

>  <Mutagenic>
high

>  <Tumorigenic>
high

>  <Reproductive Effective>
none

>  <Irritant>
none

>  <Nasty Functions>


>  <Symmetric atoms>
2

>  <Molecular Formula>
C11H12N2O

>  <Total Molweight>
188.229

$$$$

Actelion Java MolfileCreator 1.0

 18 19  0  0  0  0  0  0  0  0999 V2000
    0.0000   -0.0000   -0.0000 S   0  0  0  0  0  0  0  0  0  0  0  0
   -1.5168    0.0118   -0.0000 O   0  0  0  0  0  0  0  0  0  0  0  0
    1.4931    0.0118   -0.0000 O   0  0  0  0  0  0  0  0  0  0  0  0
   -0.0118    1.5168   -0.0000 N   0  0  0  0  0  0  0  0  0  0  0  0
   -0.0118   -1.4931   -0.0000 C   0  0  0  0  0  0  0  0  0  0  0  0
    1.2798    2.2751   -0.0000 C   0  0  0  0  0  0  0  0  0  0  0  0
   -1.3272   -2.2277   -0.0000 C   0  0  0  0  0  0  0  0  0  0  0  0
    1.2798   -2.2277   -0.0000 C   0  0  0  0  0  0  0  0  0  0  0  0
    1.2679    3.7919   -0.0000 N   0  0  0  0  0  0  0  0  0  0  0  0
    2.5714    1.5405   -0.0000 N   0  0  0  0  0  0  0  0  0  0  0  0
   -1.3390   -3.7208   -0.0000 C   0  0  0  0  0  0  0  0  0  0  0  0
    1.2679   -3.7208   -0.0000 C   0  0  0  0  0  0  0  0  0  0  0  0
    2.5595    4.5503   -0.0000 C   0  0  0  0  0  0  0  0  0  0  0  0
    3.8630    2.2988   -0.0000 C   0  0  0  0  0  0  0  0  0  0  0  0
   -0.0474   -4.4555   -0.0000 C   0  0  0  0  0  0  0  0  0  0  0  0
    3.8512    3.8156   -0.0000 C   0  0  0  0  0  0  0  0  0  0  0  0
    2.5477    6.0671   -0.0000 C   0  0  0  0  0  0  0  0  0  0  0  0
   -0.0592   -5.9486   -0.0000 N   0  0  0  0  0  0  0  0  0  0  0  0
  1  2  2  0  0  0  0
  1  3  2  0  0  0  0
  1  4  1  0  0  0  0
  1  5  1  0  0  0  0
  4  6  1  0  0  0  0
  5  7  2  0  0  0  0
  5  8  1  0  0  0  0
  6  9  2  0  0  0  0
  6 10  1  0  0  0  0
  7 11  1  0  0  0  0
  8 12  2  0  0  0  0
  9 13  1  0  0  0  0
 10 14  2  0  0  0  0
 11 15  2  0  0  0  0
 13 16  2  0  0  0  0
 13 17  1  0  0  0  0
 15 18  1  0  0  0  0
 12 15  1  0  0  0  0
 14 16  1  0  0  0  0
M  END
>  <GENERIC_NAME>
Sulfamerazine

>  <SYNONYMS>


>  <cLogP>
0.4856

>  <cLogS>
-2.66

>  <H-Acceptors>
6

>  <H-Donors>
2

>  <Polar Surface Area>
106.35

>  <Druglikeness>
3.3111

>  <Mutagenic>
none

>  <Tumorigenic>
none

>  <Reproductive Effective>
high

>  <Irritant>
none

>  <Nasty Functions>


>  <Symmetric atoms>
3

>  <Molecular Formula>
C11H12N4O2S

>  <Total Molweight>
264.308

$$$$

Actelion Java MolfileCreator 1.0

 27 28  0  0  0  0  0  0  0  0999 V2000
    0.0000   -0.0000   -0.0000 S   0  0  0  0  0  0  0  0  0  0  0  0
   -1.3079    0.7541   -0.0000 C   0  0  0  0  0  0  0  0  0  0  0  0
    1.2844    0.7541   -0.0000 C   0  0  0  0  0  0  0  0  0  0  0  0
   -1.3197    2.2624   -0.0000 O   0  0  0  0  0  0  0  0  0  0  0  0
   -2.6159    0.0236   -0.0000 C   0  0  0  0  0  0  0  0  0  0  0  0
   -2.6277    3.0165   -0.0000 C   0  0  0  0  0  0  0  0  0  0  0  0
   -2.6277   -1.4611   -0.0000 O   0  0  0  0  0  0  0  0  0  0  0  0
   -3.9238    0.7777   -0.0000 C   0  0  0  0  0  0  0  0  0  0  0  0
   -3.9356    2.2860   -0.0000 C   0  0  0  0  0  0  0  0  0  0  0  0
   -2.6395    4.5248   -0.0000 C   0  0  0  0  0  0  0  0  0  0  0  0
   -5.2318    0.0471   -0.0000 O   0  0  0  0  0  0  0  0  0  0  0  0
   -5.2436    3.0401   -0.0000 O   0  0  0  0  0  0  0  0  0  0  0  0
   -1.3551    5.2907   -0.0000 N   0  0  0  0  0  0  0  0  0  0  0  0
   -3.9474    5.2907   -0.0000 C   0  0  0  0  0  0  0  0  0  0  0  0
   -1.3669    6.7990   -0.0000 C   0  0  0  0  0  0  0  0  0  0  0  0
   -3.9592    6.7990   -0.0000 O   0  0  0  0  0  0  0  0  0  0  0  0
   -5.2553    4.5483   -0.0000 C   0  0  0  0  0  0  0  0  0  0  0  0
   -2.6748    7.5531   -0.0000 O   0  0  0  0  0  0  0  0  0  0  0  0
   -0.0825    7.5531   -0.0000 C   0  0  0  0  0  0  0  0  0  0  0  0
    0.0589    9.0496   -0.0000 N   0  0  0  0  0  0  0  0  0  0  0  0
    1.2726    6.9521   -0.0000 C   0  0  0  0  0  0  0  0  0  0  0  0
    1.5083    9.3677   -0.0000 C   0  0  0  0  0  0  0  0  0  0  0  0
   -1.0605   10.0629   -0.0000 C   0  0  0  0  0  0  0  0  0  0  0  0
    2.2624    8.0716   -0.0000 C   0  0  0  0  0  0  0  0  0  0  0  0
    3.7353    7.9302   -0.0000 C   0  0  0  0  0  0  0  0  0  0  0  0
    4.6073    9.1556   -0.0000 C   0  0  0  0  0  0  0  0  0  0  0  0
    6.0802    9.0142   -0.0000 C   0  0  0  0  0  0  0  0  0  0  0  0
  2  1  1  1  0  0  0
  1  3  1  0  0  0  0
  2  4  1  0  0  0  0
  2  5  1  0  0  0  0
  6  4  1  6  0  0  0
  5  7  1  1  0  0  0
  5  8  1  0  0  0  0
  6  9  1  0  0  0  0
  6 10  1  0  0  0  0
  8 11  1  6  0  0  0
  9 12  1  6  0  0  0
 10 13  1  6  0  0  0
 10 14  1  0  0  0  0
 13 15  1  0  0  0  0
 14 16  1  6  0  0  0
 14 17  1  0  0  0  0
 15 18  2  0  0  0  0
 15 19  1  0  0  0  0
 19 20  1  0  0  0  0
 19 21  1  0  0  0  0
 20 22  1  0  0  0  0
 20 23  1  0  0  0  0
 21 24  1  0  0  0  0
 24 25  1  1  0  0  0
 25 26  1  0  0  0  0
 26 27  1  0  0  0  0
  8  9  1  0  0  0  0
 22 24  1  0  0  0  0
M  END
>  <GENERIC_NAME>
Lincomycin

>  <SYNONYMS>
LCM; Lincomycine; Lincomyocin

>  <cLogP>
-0.2903

>  <cLogS>
-1.558

>  <H-Acceptors>
8

>  <H-Donors>
5

>  <Polar Surface Area>
147.79

>  <Druglikeness>
3.7683

>  <Mutagenic>
none

>  <Tumorigenic>
none

>  <Reproductive Effective>
none

>  <Irritant>
none

>  <Nasty Functions>


>  <Symmetric atoms>
0

>  <Molecular Formula>
C18H34N2O6S

>  <Total Molweight>
406.542

$$$$

Actelion Java MolfileCreator 1.0

 29 33  0  0  0  0  0  0  0  0999 V2000
    0.0000   -0.0000   -0.0000 O   0  0  0  0  0  0  0  0  0  0  0  0
   -0.0126   -1.4600   -0.0000 C   0  0  0  0  0  0  0  0  0  0  0  0
    1.2461   -2.1900   -0.0000 O   0  0  0  0  0  0  0  0  0  0  0  0
   -1.3090   -2.1775   -0.0000 C   0  0  0  0  0  0  0  0  0  0  0  0
    2.5173   -1.4474   -0.0000 C   0  0  0  0  0  0  0  0  0  0  0  0
    3.8892   -2.2404   -0.0000 C   0  0  0  0  0  0  0  0  0  0  0  0
    2.5173    0.1636   -0.0000 C   0  0  0  0  0  0  0  0  0  0  0  0
    5.2611   -1.4223   -0.0000 C   0  0  0  0  0  0  0  0  0  0  0  0
    3.9018    0.9566   -0.0000 C   0  0  0  0  0  0  0  0  0  0  0  0
    6.5827   -2.1775   -0.0000 C   0  0  0  0  0  0  0  0  0  0  0  0
    5.2611    0.1259   -0.0000 C   0  0  0  0  0  0  0  0  0  0  0  0
    7.8917   -1.3845   -0.0000 C   0  0  0  0  0  0  0  0  0  0  0  0
    6.5953    0.8811   -0.0000 C   0  0  0  0  0  0  0  0  0  0  0  0
    5.2611    1.6111   -0.0000 C   0  0  0  0  0  0  0  0  0  0  0  0
    7.8540    0.1636   -0.0000 C   0  0  0  0  0  0  0  0  0  0  0  0
    6.5827    2.3663   -0.0000 C   0  0  0  0  0  0  0  0  0  0  0  0
    9.1126    0.9188   -0.0000 C   0  0  0  0  0  0  0  0  0  0  0  0
    7.8414    3.1214   -0.0000 C   0  0  0  0  0  0  0  0  0  0  0  0
    9.1000    2.4040   -0.0000 C   0  0  0  0  0  0  0  0  0  0  0  0
   10.4971    0.4783   -0.0000 C   0  0  0  0  0  0  0  0  0  0  0  0
   10.4845    2.8697   -0.0000 C   0  0  0  0  0  0  0  0  0  0  0  0
    9.0874    3.8892   -0.0000 C   0  0  0  0  0  0  0  0  0  0  0  0
   11.3404    1.6740   -0.0000 C   0  0  0  0  0  0  0  0  0  0  0  0
   10.9251    4.2794   -0.0000 C   0  0  0  0  0  0  0  0  0  0  0  0
   12.3599    4.5941   -0.0000 C   0  0  0  0  0  0  0  0  0  0  0  0
    9.9307    5.3870   -0.0000 C   0  0  0  0  0  0  0  0  0  0  0  0
   12.8005    6.0038   -0.0000 N   0  0  0  0  0  0  0  0  0  0  0  0
   10.3713    6.7967   -0.0000 C   0  0  0  0  0  0  0  0  0  0  0  0
   11.8061    7.1114   -0.0000 C   0  0  0  0  0  0  0  0  0  0  0  0
  1  2  2  0  0  0  0
  2  3  1  0  0  0  0
  2  4  1  0  0  0  0
  5  3  1  6  0  0  0
  5  6  1  0  0  0  0
  5  7  1  0  0  0  0
  6  8  1  0  0  0  0
  7  9  1  0  0  0  0
  8 10  2  0  0  0  0
  8 11  1  0  0  0  0
 10 12  1  0  0  0  0
 11 13  1  0  0  0  0
 11 14  1  6  0  0  0
 12 15  1  0  0  0  0
 13 16  1  0  0  0  0
 15 17  1  0  0  0  0
 16 18  1  0  0  0  0
 17 19  1  0  0  0  0
 17 20  1  0  0  0  0
 19 21  1  0  0  0  0
 19 22  1  6  0  0  0
 20 23  1  0  0  0  0
 21 24  1  0  0  0  0
 24 25  2  0  0  0  0
 24 26  1  0  0  0  0
 25 27  1  0  0  0  0
 26 28  2  0  0  0  0
 27 29  2  0  0  0  0
  9 11  1  0  0  0  0
 13 15  1  0  0  0  0
 18 19  1  0  0  0  0
 21 23  2  0  0  0  0
 28 29  1  0  0  0  0
M  END
>  <GENERIC_NAME>
Abiraterone

>  <SYNONYMS>
CB7630

>  <cLogP>
4.6681

>  <cLogS>
-4.753

>  <H-Acceptors>
3

>  <H-Donors>
0

>  <Polar Surface Area>
39.19

>  <Druglikeness>
0.44613

>  <Mutagenic>
none

>  <Tumorigenic>
none

>  <Reproductive Effective>
none

>  <Irritant>
none

>  <Nasty Functions>


>  <Symmetric atoms>
0

>  <Molecular Formula>
C26H33NO2

>  <Total Molweight>
391.553

$$$$

Actelion Java MolfileCreator 1.0

 34 38  0  0  0  0  0  0  0  0999 V2000
    0.0000   -0.0000   -0.0000 O   0  0  0  0  0  0  0  0  0  0  0  0
   -0.0118   -1.4881   -0.0000 C   0  0  0  0  0  0  0  0  0  0  0  0
   -1.3228   -2.2204   -0.0000 N   0  0  0  0  0  0  0  0  0  0  0  0
    1.2755   -2.2204   -0.0000 C   0  0  0  0  0  0  0  0  0  0  0  0
   -2.6337   -1.4645   -0.0000 C   0  0  0  0  0  0  0  0  0  0  0  0
   -1.3346   -3.7085   -0.0000 C   0  0  0  0  0  0  0  0  0  0  0  0
    2.6810   -1.7479   -0.0000 N   0  0  0  0  0  0  0  0  0  0  0  0
    1.2637   -3.7085   -0.0000 C   0  0  0  0  0  0  0  0  0  0  0  0
   -2.6455    0.0472   -0.0000 C   0  0  0  0  0  0  0  0  0  0  0  0
   -3.9447   -2.1967   -0.0000 C   0  0  0  0  0  0  0  0  0  0  0  0
   -0.0472   -4.4407   -0.0000 C   0  0  0  0  0  0  0  0  0  0  0  0
    3.5431   -2.9408   -0.0000 N   0  0  0  0  0  0  0  0  0  0  0  0
    3.1298   -0.3071   -0.0000 C   0  0  0  0  0  0  0  0  0  0  0  0
    2.6692   -4.1573   -0.0000 C   0  0  0  0  0  0  0  0  0  0  0  0
   -3.9565    0.8031   -0.0000 C   0  0  0  0  0  0  0  0  0  0  0  0
   -5.2556   -1.4409   -0.0000 C   0  0  0  0  0  0  0  0  0  0  0  0
    2.1141    0.8267   -0.0000 C   0  0  0  0  0  0  0  0  0  0  0  0
    4.5825    0.0118   -0.0000 C   0  0  0  0  0  0  0  0  0  0  0  0
    3.1180   -5.5745   -0.0000 C   0  0  0  0  0  0  0  0  0  0  0  0
   -5.2675    0.0709   -0.0000 C   0  0  0  0  0  0  0  0  0  0  0  0
    2.5629    2.2676   -0.0000 C   0  0  0  0  0  0  0  0  0  0  0  0
    5.0313    1.4527   -0.0000 C   0  0  0  0  0  0  0  0  0  0  0  0
    2.1023   -6.6847   -0.0000 O   0  0  0  0  0  0  0  0  0  0  0  0
    4.5706   -5.8698   -0.0000 N   0  0  0  0  0  0  0  0  0  0  0  0
   -6.5784    0.8267   -0.0000 N   0  0  0  0  0  0  0  0  0  0  0  0
    4.0156    2.5865   -0.0000 C   0  0  0  0  0  0  0  0  0  0  0  0
   -6.5902    2.3385   -0.0000 C   0  0  0  0  0  0  0  0  0  0  0  0
   -7.8894    0.0945   -0.0000 C   0  0  0  0  0  0  0  0  0  0  0  0
    4.4643    4.0274   -0.0000 O   0  0  0  0  0  0  0  0  0  0  0  0
   -5.3029    3.0943   -0.0000 O   0  0  0  0  0  0  0  0  0  0  0  0
   -7.9012    3.0943   -0.0000 C   0  0  0  0  0  0  0  0  0  0  0  0
   -9.2003    0.8504   -0.0000 C   0  0  0  0  0  0  0  0  0  0  0  0
    5.9170    4.3462   -0.0000 C   0  0  0  0  0  0  0  0  0  0  0  0
   -9.2121    2.3621   -0.0000 C   0  0  0  0  0  0  0  0  0  0  0  0
  1  2  2  0  0  0  0
  2  3  1  0  0  0  0
  2  4  1  0  0  0  0
  3  5  1  0  0  0  0
  3  6  1  0  0  0  0
  4  7  1  0  0  0  0
  4  8  2  0  0  0  0
  5  9  2  0  0  0  0
  5 10  1  0  0  0  0
  6 11  1  0  0  0  0
  7 12  1  0  0  0  0
  7 13  1  0  0  0  0
  8 14  1  0  0  0  0
  9 15  1  0  0  0  0
 10 16  2  0  0  0  0
 13 17  2  0  0  0  0
 13 18  1  0  0  0  0
 14 19  1  0  0  0  0
 15 20  2  0  0  0  0
 17 21  1  0  0  0  0
 18 22  2  0  0  0  0
 19 23  2  0  0  0  0
 19 24  1  0  0  0  0
 20 25  1  0  0  0  0
 21 26  2  0  0  0  0
 25 27  1  0  0  0  0
 25 28  1  0  0  0  0
 26 29  1  0  0  0  0
 27 30  2  0  0  0  0
 27 31  1  0  0  0  0
 28 32  1  0  0  0  0
 29 33  1  0  0  0  0
 31 34  1  0  0  0  0
  8 11  1  0  0  0  0
 12 14  2  0  0  0  0
 16 20  1  0  0  0  0
 22 26  1  0  0  0  0
 32 34  1  0  0  0  0
M  END
>  <GENERIC_NAME>
Apixaban

>  <SYNONYMS>
BMS-562247

>  <cLogP>
1.6048

>  <cLogS>
-4.317

>  <H-Acceptors>
9

>  <H-Donors>
1

>  <Polar Surface Area>
110.76

>  <Druglikeness>
3.2654

>  <Mutagenic>
high

>  <Tumorigenic>
high

>  <Reproductive Effective>
none

>  <Irritant>
none

>  <Nasty Functions>


>  <Symmetric atoms>
4

>  <Molecular Formula>
C25H25N5O4

>  <Total Molweight>
459.505

$$$$

Actelion Java MolfileCreator 1.0

 19 19  0  0  0  0  0  0  0  0999 V2000
    0.0000   -0.0000   -0.0000 P   0  0  0  0  0  0  0  0  0  0  0  0
    0.7455   -1.2899   -0.0000 O   0  0  0  0  0  0  0  0  0  0  0  0
   -1.3135   -0.7337   -0.0000 O   0  0  0  0  0  0  0  0  0  0  0  0
   -0.7692    1.3135   -0.0000 O   0  0  0  0  0  0  0  0  0  0  0  0
    1.2899    0.7574   -0.0000 O   0  0  0  0  0  0  0  0  0  0  0  0
   -1.3254   -2.2247   -0.0000 C   0  0  0  0  0  0  0  0  0  0  0  0
   -2.6389   -2.9584   -0.0000 O   0  0  0  0  0  0  0  0  0  0  0  0
   -2.6507   -4.4495   -0.0000 C   0  0  0  0  0  0  0  0  0  0  0  0
   -1.3609   -5.1832   -0.0000 C   0  0  0  0  0  0  0  0  0  0  0  0
   -3.9643   -5.1832   -0.0000 C   0  0  0  0  0  0  0  0  0  0  0  0
   -1.3727   -6.6742   -0.0000 C   0  0  0  0  0  0  0  0  0  0  0  0
   -0.0710   -4.4258   -0.0000 C   0  0  0  0  0  0  0  0  0  0  0  0
   -3.9761   -6.6742   -0.0000 C   0  0  0  0  0  0  0  0  0  0  0  0
   -5.2778   -4.4258   -0.0000 C   0  0  0  0  0  0  0  0  0  0  0  0
   -2.6863   -7.4197   -0.0000 C   0  0  0  0  0  0  0  0  0  0  0  0
    1.2189   -5.1595   -0.0000 C   0  0  0  0  0  0  0  0  0  0  0  0
   -0.0828   -2.9111   -0.0000 C   0  0  0  0  0  0  0  0  0  0  0  0
   -6.5914   -5.1595   -0.0000 C   0  0  0  0  0  0  0  0  0  0  0  0
   -5.2897   -2.9111   -0.0000 C   0  0  0  0  0  0  0  0  0  0  0  0
  1  2  2  0  0  0  0
  1  3  1  0  0  0  0
  1  4  1  0  0  0  0
  1  5  1  0  0  0  0
  3  6  1  0  0  0  0
  6  7  1  0  0  0  0
  7  8  1  0  0  0  0
  8  9  2  0  0  0  0
  8 10  1  0  0  0  0
  9 11  1  0  0  0  0
  9 12  1  0  0  0  0
 10 13  2  0  0  0  0
 10 14  1  0  0  0  0
 11 15  2  0  0  0  0
 12 16  1  0  0  0  0
 12 17  1  0  0  0  0
 14 18  1  0  0  0  0
 14 19  1  0  0  0  0
 13 15  1  0  0  0  0
M  END
>  <GENERIC_NAME>
Fospropofol

>  <SYNONYMS>
GPI 15715

>  <cLogP>
0.2188

>  <cLogS>
-2.118

>  <H-Acceptors>
5

>  <H-Donors>
2

>  <Polar Surface Area>
85.8

>  <Druglikeness>
-20.726

>  <Mutagenic>
none

>  <Tumorigenic>
none

>  <Reproductive Effective>
none

>  <Irritant>
none

>  <Nasty Functions>


>  <Symmetric atoms>
7

>  <Molecular Formula>
C13H21O5P

>  <Total Molweight>
288.279

$$$$

Actelion Java MolfileCreator 1.0

 29 31  0  0  0  0  0  0  0  0999 V2000
    0.0000   -0.0000   -0.0000 O   0  0  0  0  0  0  0  0  0  0  0  0
    1.2827    0.7532   -0.0000 C   0  0  0  0  0  0  0  0  0  0  0  0
   -1.3063    0.7532   -0.0000 C   0  0  0  0  0  0  0  0  0  0  0  0
    1.2709    2.2595   -0.0000 C   0  0  0  0  0  0  0  0  0  0  0  0
    2.5654    0.0235   -0.0000 C   0  0  0  0  0  0  0  0  0  0  0  0
   -2.6125    0.0235   -0.0000 C   0  0  0  0  0  0  0  0  0  0  0  0
   -0.0353    3.0126   -0.0000 O   0  0  0  0  0  0  0  0  0  0  0  0
    2.5537    3.0126   -0.0000 C   0  0  0  0  0  0  0  0  0  0  0  0
    3.8482    0.7767   -0.0000 C   0  0  0  0  0  0  0  0  0  0  0  0
   -0.0471    4.5189   -0.0000 C   0  0  0  0  0  0  0  0  0  0  0  0
    3.8364    2.2830   -0.0000 C   0  0  0  0  0  0  0  0  0  0  0  0
    5.1779   -0.0118   -0.0000 C   0  0  0  0  0  0  0  0  0  0  0  0
   -1.3533    5.2721   -0.0000 C   0  0  0  0  0  0  0  0  0  0  0  0
    5.1662    3.0950   -0.0000 C   0  0  0  0  0  0  0  0  0  0  0  0
    6.5195    0.7649   -0.0000 N   0  0  0  0  0  0  0  0  0  0  0  0
    5.1544   -1.4945   -0.0000 C   0  0  0  0  0  0  0  0  0  0  0  0
    6.5077    2.3418   -0.0000 C   0  0  0  0  0  0  0  0  0  0  0  0
    6.4254   -2.2477   -0.0000 C   0  0  0  0  0  0  0  0  0  0  0  0
    6.4018   -3.7305   -0.0000 C   0  0  0  0  0  0  0  0  0  0  0  0
    7.7198   -1.5063   -0.0000 C   0  0  0  0  0  0  0  0  0  0  0  0
    7.6728   -4.4836   -0.0000 C   0  0  0  0  0  0  0  0  0  0  0  0
    8.9908   -2.2595   -0.0000 C   0  0  0  0  0  0  0  0  0  0  0  0
    7.6492   -5.9664   -0.0000 O   0  0  0  0  0  0  0  0  0  0  0  0
    8.9673   -3.7422   -0.0000 C   0  0  0  0  0  0  0  0  0  0  0  0
    6.3312   -6.6843   -0.0000 C   0  0  0  0  0  0  0  0  0  0  0  0
   10.2382   -4.4954   -0.0000 O   0  0  0  0  0  0  0  0  0  0  0  0
    6.3077   -8.1670   -0.0000 C   0  0  0  0  0  0  0  0  0  0  0  0
   11.5327   -3.7540   -0.0000 C   0  0  0  0  0  0  0  0  0  0  0  0
   12.8036   -4.5072   -0.0000 C   0  0  0  0  0  0  0  0  0  0  0  0
  1  2  1  0  0  0  0
  1  3  1  0  0  0  0
  2  4  2  0  0  0  0
  2  5  1  0  0  0  0
  3  6  1  0  0  0  0
  4  7  1  0  0  0  0
  4  8  1  0  0  0  0
  5  9  2  0  0  0  0
  7 10  1  0  0  0  0
  8 11  2  0  0  0  0
  9 12  1  0  0  0  0
 10 13  1  0  0  0  0
 11 14  1  0  0  0  0
 12 15  1  0  0  0  0
 12 16  2  0  0  0  0
 14 17  1  0  0  0  0
 16 18  1  0  0  0  0
 18 19  2  0  0  0  0
 18 20  1  0  0  0  0
 19 21  1  0  0  0  0
 20 22  2  0  0  0  0
 21 23  1  0  0  0  0
 21 24  2  0  0  0  0
 23 25  1  0  0  0  0
 24 26  1  0  0  0  0
 25 27  1  0  0  0  0
 26 28  1  0  0  0  0
 28 29  1  0  0  0  0
  9 11  1  0  0  0  0
 15 17  1  0  0  0  0
 22 24  1  0  0  0  0
M  END
>  <GENERIC_NAME>
Drotaverine

>  <SYNONYMS>
drotaverin

>  <cLogP>
5.0673

>  <cLogS>
-4.898

>  <H-Acceptors>
5

>  <H-Donors>
1

>  <Polar Surface Area>
48.95

>  <Druglikeness>
-0.30443

>  <Mutagenic>
none

>  <Tumorigenic>
none

>  <Reproductive Effective>
high

>  <Irritant>
none

>  <Nasty Functions>


>  <Symmetric atoms>
0

>  <Molecular Formula>
C24H31NO4

>  <Total Molweight>
397.513

$$$$

Actelion Java MolfileCreator 1.0

 20 22  0  0  0  0  0  0  0  0999 V2000
    0.0000   -0.0000   -0.0000 N   0  0  0  0  0  0  0  0  0  0  0  0
   -1.2282   -0.8739   -0.0000 C   0  0  0  0  0  0  0  0  0  0  0  0
   -0.4724    1.4408   -0.0000 C   0  0  0  0  0  0  0  0  0  0  0  0
   -2.4564    0.0236   -0.0000 N   0  0  0  0  0  0  0  0  0  0  0  0
   -1.2400   -2.3619   -0.0000 C   0  0  0  0  0  0  0  0  0  0  0  0
   -1.9840    1.4526   -0.0000 C   0  0  0  0  0  0  0  0  0  0  0  0
   -2.5509   -3.0941   -0.0000 N   0  0  0  0  0  0  0  0  0  0  0  0
   -2.5627   -4.5821   -0.0000 C   0  0  0  0  0  0  0  0  0  0  0  0
   -3.8617   -2.3383   -0.0000 C   0  0  0  0  0  0  0  0  0  0  0  0
   -1.2754   -5.3143   -0.0000 C   0  0  0  0  0  0  0  0  0  0  0  0
   -3.8735   -5.3143   -0.0000 C   0  0  0  0  0  0  0  0  0  0  0  0
   -5.1726   -3.0705   -0.0000 C   0  0  0  0  0  0  0  0  0  0  0  0
   -1.2872   -6.8023   -0.0000 C   0  0  0  0  0  0  0  0  0  0  0  0
   -3.8853   -6.8023   -0.0000 C   0  0  0  0  0  0  0  0  0  0  0  0
   -5.1844   -4.5585   -0.0000 C   0  0  0  0  0  0  0  0  0  0  0  0
   -6.4835   -2.3147   -0.0000 C   0  0  0  0  0  0  0  0  0  0  0  0
   -2.5981   -7.5345   -0.0000 C   0  0  0  0  0  0  0  0  0  0  0  0
   -6.4953   -5.2907   -0.0000 C   0  0  0  0  0  0  0  0  0  0  0  0
   -7.7943   -3.0469   -0.0000 C   0  0  0  0  0  0  0  0  0  0  0  0
   -7.8061   -4.5349   -0.0000 C   0  0  0  0  0  0  0  0  0  0  0  0
  1  2  2  0  0  0  0
  1  3  1  0  0  0  0
  2  4  1  0  0  0  0
  2  5  1  0  0  0  0
  3  6  1  0  0  0  0
  5  7  1  0  0  0  0
  7  8  1  0  0  0  0
  7  9  1  0  0  0  0
  8 10  2  0  0  0  0
  8 11  1  0  0  0  0
  9 12  1  0  0  0  0
 10 13  1  0  0  0  0
 11 14  2  0  0  0  0
 12 15  2  0  0  0  0
 12 16  1  0  0  0  0
 13 17  2  0  0  0  0
 15 18  1  0  0  0  0
 16 19  2  0  0  0  0
 18 20  2  0  0  0  0
  4  6  1  0  0  0  0
 14 17  1  0  0  0  0
 19 20  1  0  0  0  0
M  END
>  <GENERIC_NAME>
Antazoline

>  <SYNONYMS>
Phenazolin; Phenazoline

>  <cLogP>
2.0152

>  <cLogS>
-2.944

>  <H-Acceptors>
3

>  <H-Donors>
1

>  <Polar Surface Area>
27.63

>  <Druglikeness>
5.3306

>  <Mutagenic>
none

>  <Tumorigenic>
none

>  <Reproductive Effective>
none

>  <Irritant>
high

>  <Nasty Functions>


>  <Symmetric atoms>
4

>  <Molecular Formula>
C17H19N3

>  <Total Molweight>
265.359

$$$$

Actelion Java MolfileCreator 1.0

 20 22  0  0  0  0  0  0  0  0999 V2000
    0.0000   -0.0000   -0.0000 S   0  0  0  0  0  0  0  0  0  0  0  0
    1.2586    0.7506   -0.0000 C   0  0  0  0  0  0  0  0  0  0  0  0
   -1.2817    0.7506   -0.0000 C   0  0  0  0  0  0  0  0  0  0  0  0
    1.2471    2.2286   -0.0000 C   0  0  0  0  0  0  0  0  0  0  0  0
    2.5635   -0.0231   -0.0000 C   0  0  0  0  0  0  0  0  0  0  0  0
   -1.2933    2.2286   -0.0000 C   0  0  0  0  0  0  0  0  0  0  0  0
   -2.6097   -0.0231   -0.0000 C   0  0  0  0  0  0  0  0  0  0  0  0
    2.5519    3.0254   -0.0000 N   0  0  0  0  0  0  0  0  0  0  0  0
   -0.0346    2.9792   -0.0000 N   0  0  0  0  0  0  0  0  0  0  0  0
    3.8799    0.7390   -0.0000 C   0  0  0  0  0  0  0  0  0  0  0  0
   -2.6212    3.0254   -0.0000 C   0  0  0  0  0  0  0  0  0  0  0  0
   -3.9492    0.7390   -0.0000 C   0  0  0  0  0  0  0  0  0  0  0  0
    3.8683    2.2864   -0.0000 C   0  0  0  0  0  0  0  0  0  0  0  0
   -0.0462    4.4572   -0.0000 C   0  0  0  0  0  0  0  0  0  0  0  0
   -3.9607    2.2864   -0.0000 C   0  0  0  0  0  0  0  0  0  0  0  0
    1.2125    5.2078   -0.0000 C   0  0  0  0  0  0  0  0  0  0  0  0
    1.2009    6.6859   -0.0000 N   0  0  0  0  0  0  0  0  0  0  0  0
    2.4711    4.4803   -0.0000 C   0  0  0  0  0  0  0  0  0  0  0  0
    2.4596    7.4249   -0.0000 C   0  0  0  0  0  0  0  0  0  0  0  0
   -0.0808    7.4249   -0.0000 C   0  0  0  0  0  0  0  0  0  0  0  0
  1  2  1  0  0  0  0
  1  3  1  0  0  0  0
  2  4  2  0  0  0  0
  2  5  1  0  0  0  0
  3  6  2  0  0  0  0
  3  7  1  0  0  0  0
  4  8  1  0  0  0  0
  4  9  1  0  0  0  0
  5 10  2  0  0  0  0
  6 11  1  0  0  0  0
  7 12  2  0  0  0  0
  8 13  2  0  0  0  0
  9 14  1  0  0  0  0
 11 15  2  0  0  0  0
 14 16  1  0  0  0  0
 16 17  1  1  0  0  0
 16 18  1  0  0  0  0
 17 19  1  0  0  0  0
 17 20  1  0  0  0  0
  6  9  1  0  0  0  0
 10 13  1  0  0  0  0
 12 15  1  0  0  0  0
M  END
>  <GENERIC_NAME>
Isothipendyl

>  <SYNONYMS>
Isothipendylum

>  <cLogP>
3.2563

>  <cLogS>
-3.903

>  <H-Acceptors>
3

>  <H-Donors>
0

>  <Polar Surface Area>
44.67

>  <Druglikeness>
6.0737

>  <Mutagenic>
none

>  <Tumorigenic>
none

>  <Reproductive Effective>
none

>  <Irritant>
none

>  <Nasty Functions>


>  <Symmetric atoms>
1

>  <Molecular Formula>
C16H19N3S

>  <Total Molweight>
285.414

$$$$

Actelion Java MolfileCreator 1.0

 33 35  0  0  0  0  0  0  0  0999 V2000
    0.0000   -0.0000   -0.0000 Cl  0  0  0  0  0  0  0  0  0  0  0  0
   -1.2819   -0.7272   -0.0000 C   0  0  0  0  0  0  0  0  0  0  0  0
   -2.6377    0.0247   -0.0000 C   0  0  0  0  0  0  0  0  0  0  0  0
   -1.2942   -2.2063   -0.0000 C   0  0  0  0  0  0  0  0  0  0  0  0
   -3.9195   -0.7026   -0.0000 C   0  0  0  0  0  0  0  0  0  0  0  0
   -2.6500    1.5284   -0.0000 C   0  0  0  0  0  0  0  0  0  0  0  0
   -2.6500   -2.9335   -0.0000 C   0  0  0  0  0  0  0  0  0  0  0  0
   -3.9319   -2.1816   -0.0000 C   0  0  0  0  0  0  0  0  0  0  0  0
   -2.6623    3.0321   -0.0000 F   0  0  0  0  0  0  0  0  0  0  0  0
   -4.1537    1.5407   -0.0000 F   0  0  0  0  0  0  0  0  0  0  0  0
   -1.1709    1.5407   -0.0000 F   0  0  0  0  0  0  0  0  0  0  0  0
   -5.2877   -2.9088   -0.0000 N   0  0  0  0  0  0  0  0  0  0  0  0
   -6.5695   -2.1570   -0.0000 C   0  0  0  0  0  0  0  0  0  0  0  0
   -6.5818   -0.6533   -0.0000 O   0  0  0  0  0  0  0  0  0  0  0  0
   -7.8514   -2.8842   -0.0000 N   0  0  0  0  0  0  0  0  0  0  0  0
   -9.1332   -2.1323   -0.0000 C   0  0  0  0  0  0  0  0  0  0  0  0
  -10.4151   -2.8595   -0.0000 C   0  0  0  0  0  0  0  0  0  0  0  0
   -9.1456   -0.6286   -0.0000 C   0  0  0  0  0  0  0  0  0  0  0  0
  -10.4274   -4.3386   -0.0000 F   0  0  0  0  0  0  0  0  0  0  0  0
  -11.7709   -2.1077   -0.0000 C   0  0  0  0  0  0  0  0  0  0  0  0
  -10.5014    0.1233   -0.0000 C   0  0  0  0  0  0  0  0  0  0  0  0
  -11.7832   -0.6040   -0.0000 C   0  0  0  0  0  0  0  0  0  0  0  0
  -12.9911    0.1479   -0.0000 O   0  0  0  0  0  0  0  0  0  0  0  0
  -14.2730   -0.5793   -0.0000 C   0  0  0  0  0  0  0  0  0  0  0  0
  -15.6288    0.2588   -0.0000 C   0  0  0  0  0  0  0  0  0  0  0  0
  -14.2853   -2.0584   -0.0000 C   0  0  0  0  0  0  0  0  0  0  0  0
  -16.9107   -0.4684   -0.0000 C   0  0  0  0  0  0  0  0  0  0  0  0
  -15.6411   -2.7856   -0.0000 C   0  0  0  0  0  0  0  0  0  0  0  0
  -16.9230   -2.0214   -0.0000 N   0  0  0  0  0  0  0  0  0  0  0  0
  -18.1925    0.2095   -0.0000 C   0  0  0  0  0  0  0  0  0  0  0  0
  -18.2048    1.7133   -0.0000 O   0  0  0  0  0  0  0  0  0  0  0  0
  -19.5483   -0.5177   -0.0000 N   0  0  0  0  0  0  0  0  0  0  0  0
  -20.8302    0.2342   -0.0000 C   0  0  0  0  0  0  0  0  0  0  0  0
  1  2  1  0  0  0  0
  2  3  2  0  0  0  0
  2  4  1  0  0  0  0
  3  5  1  0  0  0  0
  3  6  1  0  0  0  0
  4  7  2  0  0  0  0
  5  8  2  0  0  0  0
  6  9  1  0  0  0  0
  6 10  1  0  0  0  0
  6 11  1  0  0  0  0
  8 12  1  0  0  0  0
 12 13  1  0  0  0  0
 13 14  2  0  0  0  0
 13 15  1  0  0  0  0
 15 16  1  0  0  0  0
 16 17  2  0  0  0  0
 16 18  1  0  0  0  0
 17 19  1  0  0  0  0
 17 20  1  0  0  0  0
 18 21  2  0  0  0  0
 20 22  2  0  0  0  0
 22 23  1  0  0  0  0
 23 24  1  0  0  0  0
 24 25  2  0  0  0  0
 24 26  1  0  0  0  0
 25 27  1  0  0  0  0
 26 28  2  0  0  0  0
 27 29  2  0  0  0  0
 27 30  1  0  0  0  0
 30 31  2  0  0  0  0
 30 32  1  0  0  0  0
 32 33  1  0  0  0  0
  7  8  1  0  0  0  0
 21 22  1  0  0  0  0
 28 29  1  0  0  0  0
M  END
>  <GENERIC_NAME>
Regorafenib

>  <SYNONYMS>
BAY 73-4506

>  <cLogP>
4.2436

>  <cLogS>
-7.003

>  <H-Acceptors>
7

>  <H-Donors>
3

>  <Polar Surface Area>
92.35

>  <Druglikeness>
-5.1185

>  <Mutagenic>
none

>  <Tumorigenic>
none

>  <Reproductive Effective>
none

>  <Irritant>
none

>  <Nasty Functions>


>  <Symmetric atoms>
2

>  <Molecular Formula>
C21H15N4O3ClF4

>  <Total Molweight>
482.82

$$$$

Actelion Java MolfileCreator 1.0

 22 25  0  0  0  0  0  0  0  0999 V2000
    0.0000   -0.0000   -0.0000 O   0  0  0  0  0  0  0  0  0  0  0  0
    1.2714    0.7549   -0.0000 C   0  0  0  0  0  0  0  0  0  0  0  0
    2.5230    0.0397   -0.0000 C   0  0  0  0  0  0  0  0  0  0  0  0
    1.2515    2.2250   -0.0000 C   0  0  0  0  0  0  0  0  0  0  0  0
    2.5031   -1.3906   -0.0000 O   0  0  0  0  0  0  0  0  0  0  0  0
    3.7546    0.7946   -0.0000 C   0  0  0  0  0  0  0  0  0  0  0  0
    2.5031    2.9799   -0.0000 C   0  0  0  0  0  0  0  0  0  0  0  0
    3.7348    2.2647   -0.0000 C   0  0  0  0  0  0  0  0  0  0  0  0
    5.0062    0.0795   -0.0000 C   0  0  0  0  0  0  0  0  0  0  0  0
    4.9863    3.0196   -0.0000 C   0  0  0  0  0  0  0  0  0  0  0  0
    3.7149    3.7348   -0.0000 C   0  0  0  0  0  0  0  0  0  0  0  0
    6.2577    0.8344   -0.0000 C   0  0  0  0  0  0  0  0  0  0  0  0
    6.2379    2.3044   -0.0000 C   0  0  0  0  0  0  0  0  0  0  0  0
    4.9664    4.4897   -0.0000 C   0  0  0  0  0  0  0  0  0  0  0  0
    7.4894    3.0593   -0.0000 C   0  0  0  0  0  0  0  0  0  0  0  0
    6.2180    5.2446   -0.0000 C   0  0  0  0  0  0  0  0  0  0  0  0
    7.4695    4.5294   -0.0000 C   0  0  0  0  0  0  0  0  0  0  0  0
    9.9925    3.0792   -0.0000 C   0  0  0  0  0  0  0  0  0  0  0  0
    8.7012    5.2843   -0.0000 C   0  0  0  0  0  0  0  0  0  0  0  0
    7.4497    5.9995   -0.0000 C   0  0  0  0  0  0  0  0  0  0  0  0
    9.9726    4.5493   -0.0000 C   0  0  0  0  0  0  0  0  0  0  0  0
    8.6814    6.7544   -0.0000 O   0  0  0  0  0  0  0  0  0  0  0  0
  1  2  2  0  0  0  0
  2  3  1  0  0  0  0
  2  4  1  0  0  0  0
  3  5  1  0  0  0  0
  3  6  2  0  0  0  0
  4  7  1  0  0  0  0
  6  8  1  0  0  0  0
  6  9  1  0  0  0  0
  8 10  1  0  0  0  0
  8 11  1  6  0  0  0
  9 12  1  0  0  0  0
 10 13  1  0  0  0  0
 10 14  1  6  0  0  0
 13 15  1  0  0  0  0
 14 16  1  0  0  0  0
 15 17  1  0  0  0  0
 15 18  1  6  0  0  0
 17 19  1  0  0  0  0
 17 20  1  6  0  0  0
 18 21  1  0  0  0  0
 19 22  2  0  0  0  0
  7  8  1  0  0  0  0
 13 12  1  1  0  0  0
 16 17  1  0  0  0  0
 19 21  1  0  0  0  0
M  END
>  <GENERIC_NAME>
Formestane

>  <SYNONYMS>
4-hydroxyandrost-4-ene-3,17-dione

>  <cLogP>
3.1401

>  <cLogS>
-4.043

>  <H-Acceptors>
3

>  <H-Donors>
1

>  <Polar Surface Area>
54.37

>  <Druglikeness>
0.50199

>  <Mutagenic>
none

>  <Tumorigenic>
none

>  <Reproductive Effective>
high

>  <Irritant>
none

>  <Nasty Functions>


>  <Symmetric atoms>
0

>  <Molecular Formula>
C19H26O3

>  <Total Molweight>
302.412

$$$$
